** ***************************************************************************
**   Written by        : Femap
**   Version           : 2412.0
**   Abaqus Version    : 62
**   From Model        : C:\Femap_temp\SP-UC1.modfem
**   Date              : Tue Sep  2 21:41:05 2025
** ***************************************************************************
** 
*HEADING
ABAQUS Buckling Analysis Set
*NODE, NSET=GLOBAL
       1,          0.,         0.6,          0.
       2,        0.02,         0.6,          0.
       3,        0.04,         0.6,          0.
       4,        0.06,         0.6,          0.
       5,        0.08,         0.6,          0.
       6,         0.1,         0.6,          0.
       7,        0.12,         0.6,          0.
       8,        0.14,         0.6,          0.
       9,        0.16,         0.6,          0.
      10,        0.18,         0.6,          0.
      11,         0.2,         0.6,          0.
      12,        0.22,         0.6,          0.
      13,        0.24,         0.6,          0.
      14,        0.26,         0.6,          0.
      15,        0.28,         0.6,          0.
      16,         0.3,         0.6,          0.
      17,        0.32,         0.6,          0.
      18,        0.34,         0.6,          0.
      19,        0.36,         0.6,          0.
      20,        0.38,         0.6,          0.
** ... 28821 like lines cut
*ELEMENT, TYPE=S4, ELSET=P4
      1,      1,      2,    313,    312
      2,      2,      3,    314,    313
      3,      3,      4,    315,    314
      4,      4,      5,    316,    315
*ELEMENT, TYPE=S4, ELSET=P2
      5,      5,      6,    317,    316
      6,      6,      7,    318,    317
      7,      7,      8,    319,    318
      8,      8,      9,    320,    319
      9,      9,     10,    321,    320
     10,     10,     11,    322,    321
     11,     11,     12,    323,    322
     12,     12,     13,    324,    323
     13,     13,     14,    325,    324
     14,     14,     15,    326,    325
     15,     15,     16,    327,    326
     16,     16,     17,    328,    327
     17,     17,     18,    329,    328
     18,     18,     19,    330,    329
     19,     19,     20,    331,    330
     20,     20,     21,    332,    331
     21,     21,     22,    333,    332
     22,     22,     23,    334,    333
     23,     23,     24,    335,    334
     24,     24,     25,    336,    335
** ... 122 like lines cut
*ELEMENT, TYPE=S4, ELSET=P4
    147,    147,    148,    459,    458
    148,    148,    149,    460,    459
    149,    149,    150,    461,    460
    150,    150,    151,    152,    461
    151,    312,    313,    462,    311
    152,    313,    314,    463,    462
    153,    314,    315,    464,    463
    154,    315,    316,    465,    464
*ELEMENT, TYPE=S4, ELSET=P2
    155,    316,    317,    466,    465
    156,    317,    318,    467,    466
    157,    318,    319,    468,    467
    158,    319,    320,    469,    468
    159,    320,    321,    470,    469
    160,    321,    322,    471,    470
    161,    322,    323,    472,    471
    162,    323,    324,    473,    472
    163,    324,    325,    474,    473
    164,    325,    326,    475,    474
    165,    326,    327,    476,    475
    166,    327,    328,    477,    476
    167,    328,    329,    478,    477
    168,    329,    330,    479,    478
    169,    330,    331,    480,    479
    170,    331,    332,    481,    480
    171,    332,    333,    482,    481
    172,    333,    334,    483,    482
    173,    334,    335,    484,    483
    174,    335,    336,    485,    484
** ... 122 like lines cut
*ELEMENT, TYPE=S4, ELSET=P4
    297,    458,    459,    608,    607
    298,    459,    460,    609,    608
    299,    460,    461,    610,    609
    300,    461,    152,    153,    610
    301,    311,    462,    611,    310
    302,    462,    463,    612,    611
    303,    463,    464,    613,    612
    304,    464,    465,    614,    613
*ELEMENT, TYPE=S4, ELSET=P2
    305,    465,    466,    615,    614
    306,    466,    467,    616,    615
    307,    467,    468,    617,    616
    308,    468,    469,    618,    617
    309,    469,    470,    619,    618
    310,    470,    471,    620,    619
    311,    471,    472,    621,    620
    312,    472,    473,    622,    621
    313,    473,    474,    623,    622
    314,    474,    475,    624,    623
    315,    475,    476,    625,    624
    316,    476,    477,    626,    625
    317,    477,    478,    627,    626
    318,    478,    479,    628,    627
    319,    479,    480,    629,    628
    320,    480,    481,    630,    629
    321,    481,    482,    631,    630
    322,    482,    483,    632,    631
    323,    483,    484,    633,    632
    324,    484,    485,    634,    633
** ... 122 like lines cut
*ELEMENT, TYPE=S4, ELSET=P4
    447,    607,    608,    757,    756
    448,    608,    609,    758,    757
    449,    609,    610,    759,    758
    450,    610,    153,    154,    759
    451,    310,    611,    760,    309
    452,    611,    612,    761,    760
    453,    612,    613,    762,    761
    454,    613,    614,    763,    762
*ELEMENT, TYPE=S4, ELSET=P2
    455,    614,    615,    764,    763
    456,    615,    616,    765,    764
    457,    616,    617,    766,    765
    458,    617,    618,    767,    766
    459,    618,    619,    768,    767
    460,    619,    620,    769,    768
    461,    620,    621,    770,    769
    462,    621,    622,    771,    770
    463,    622,    623,    772,    771
    464,    623,    624,    773,    772
    465,    624,    625,    774,    773
    466,    625,    626,    775,    774
    467,    626,    627,    776,    775
    468,    627,    628,    777,    776
    469,    628,    629,    778,    777
    470,    629,    630,    779,    778
    471,    630,    631,    780,    779
    472,    631,    632,    781,    780
    473,    632,    633,    782,    781
    474,    633,    634,    783,    782
** ... 122 like lines cut
*ELEMENT, TYPE=S4, ELSET=P4
    597,    756,    757,    906,    905
    598,    757,    758,    907,    906
    599,    758,    759,    908,    907
    600,    759,    154,    155,    908
*ELEMENT, TYPE=S4, ELSET=P2
    601,    309,    760,    909,    308
    602,    760,    761,    910,    909
    603,    761,    762,    911,    910
    604,    762,    763,    912,    911
    605,    763,    764,    913,    912
    606,    764,    765,    914,    913
    607,    765,    766,    915,    914
    608,    766,    767,    916,    915
    609,    767,    768,    917,    916
    610,    768,    769,    918,    917
    611,    769,    770,    919,    918
    612,    770,    771,    920,    919
    613,    771,    772,    921,    920
    614,    772,    773,    922,    921
    615,    773,    774,    923,    922
    616,    774,    775,    924,    923
    617,    775,    776,    925,    924
    618,    776,    777,    926,    925
    619,    777,    778,    927,    926
    620,    778,    779,    928,    927
** ... 280 like lines cut
*ELEMENT, TYPE=S4, ELSET=P3
    901,   1058,   1059,   1362,   1361
    902,   1059,   1060,   1363,   1362
    903,   1060,   1061,   1364,   1363
    904,   1061,   1062,   1365,   1364
    905,   1062,   1063,   1366,   1365
    906,   1063,   1064,   1367,   1366
    907,   1064,   1065,   1368,   1367
    908,   1065,   1066,   1369,   1368
    909,   1066,   1067,   1370,   1369
    910,   1067,   1068,   1371,   1370
    911,   1068,   1069,   1372,   1371
    912,   1069,   1070,   1373,   1372
    913,   1070,   1071,   1374,   1373
    914,   1071,   1072,   1375,   1374
    915,   1072,   1073,   1376,   1375
    916,   1073,   1074,   1377,   1376
    917,   1074,   1075,   1378,   1377
    918,   1075,   1076,   1379,   1378
    919,   1076,   1077,   1380,   1379
    920,   1077,   1078,   1381,   1380
** ... 580 like lines cut
*ELEMENT, TYPE=S4, ELSET=P4
   1501,   1964,   1965,   2276,   2275
   1502,   1965,   1966,   2277,   2276
   1503,   1966,   1967,   2278,   2277
   1504,   1967,   1968,   2279,   2278
*ELEMENT, TYPE=S4, ELSET=P2
   1505,   1968,   1969,   2280,   2279
   1506,   1969,   1970,   2281,   2280
   1507,   1970,   1971,   2282,   2281
   1508,   1971,   1972,   2283,   2282
   1509,   1972,   1973,   2284,   2283
   1510,   1973,   1974,   2285,   2284
   1511,   1974,   1975,   2286,   2285
   1512,   1975,   1976,   2287,   2286
   1513,   1976,   1977,   2288,   2287
   1514,   1977,   1978,   2289,   2288
   1515,   1978,   1979,   2290,   2289
   1516,   1979,   1980,   2291,   2290
   1517,   1980,   1981,   2292,   2291
   1518,   1981,   1982,   2293,   2292
   1519,   1982,   1983,   2294,   2293
   1520,   1983,   1984,   2295,   2294
   1521,   1984,   1985,   2296,   2295
   1522,   1985,   1986,   2297,   2296
   1523,   1986,   1987,   2298,   2297
   1524,   1987,   1988,   2299,   2298
** ... 122 like lines cut
*ELEMENT, TYPE=S4, ELSET=P4
   1647,   2110,   2111,   2422,   2421
   1648,   2111,   2112,   2423,   2422
   1649,   2112,   2113,   2424,   2423
   1650,   2113,   2114,   2115,   2424
   1651,   2275,   2276,   2425,   2274
   1652,   2276,   2277,   2426,   2425
   1653,   2277,   2278,   2427,   2426
   1654,   2278,   2279,   2428,   2427
*ELEMENT, TYPE=S4, ELSET=P2
   1655,   2279,   2280,   2429,   2428
   1656,   2280,   2281,   2430,   2429
   1657,   2281,   2282,   2431,   2430
   1658,   2282,   2283,   2432,   2431
   1659,   2283,   2284,   2433,   2432
   1660,   2284,   2285,   2434,   2433
   1661,   2285,   2286,   2435,   2434
   1662,   2286,   2287,   2436,   2435
   1663,   2287,   2288,   2437,   2436
   1664,   2288,   2289,   2438,   2437
   1665,   2289,   2290,   2439,   2438
   1666,   2290,   2291,   2440,   2439
   1667,   2291,   2292,   2441,   2440
   1668,   2292,   2293,   2442,   2441
   1669,   2293,   2294,   2443,   2442
   1670,   2294,   2295,   2444,   2443
   1671,   2295,   2296,   2445,   2444
   1672,   2296,   2297,   2446,   2445
   1673,   2297,   2298,   2447,   2446
   1674,   2298,   2299,   2448,   2447
** ... 122 like lines cut
*ELEMENT, TYPE=S4, ELSET=P4
   1797,   2421,   2422,   2571,   2570
   1798,   2422,   2423,   2572,   2571
   1799,   2423,   2424,   2573,   2572
   1800,   2424,   2115,   2116,   2573
   1801,   2274,   2425,   2574,   2273
   1802,   2425,   2426,   2575,   2574
   1803,   2426,   2427,   2576,   2575
   1804,   2427,   2428,   2577,   2576
*ELEMENT, TYPE=S4, ELSET=P2
   1805,   2428,   2429,   2578,   2577
   1806,   2429,   2430,   2579,   2578
   1807,   2430,   2431,   2580,   2579
   1808,   2431,   2432,   2581,   2580
   1809,   2432,   2433,   2582,   2581
   1810,   2433,   2434,   2583,   2582
   1811,   2434,   2435,   2584,   2583
   1812,   2435,   2436,   2585,   2584
   1813,   2436,   2437,   2586,   2585
   1814,   2437,   2438,   2587,   2586
   1815,   2438,   2439,   2588,   2587
   1816,   2439,   2440,   2589,   2588
   1817,   2440,   2441,   2590,   2589
   1818,   2441,   2442,   2591,   2590
   1819,   2442,   2443,   2592,   2591
   1820,   2443,   2444,   2593,   2592
   1821,   2444,   2445,   2594,   2593
   1822,   2445,   2446,   2595,   2594
   1823,   2446,   2447,   2596,   2595
   1824,   2447,   2448,   2597,   2596
** ... 122 like lines cut
*ELEMENT, TYPE=S4, ELSET=P4
   1947,   2570,   2571,   2720,   2719
   1948,   2571,   2572,   2721,   2720
   1949,   2572,   2573,   2722,   2721
   1950,   2573,   2116,   2117,   2722
   1951,   2273,   2574,   2723,   2272
   1952,   2574,   2575,   2724,   2723
   1953,   2575,   2576,   2725,   2724
   1954,   2576,   2577,   2726,   2725
*ELEMENT, TYPE=S4, ELSET=P2
   1955,   2577,   2578,   2727,   2726
   1956,   2578,   2579,   2728,   2727
   1957,   2579,   2580,   2729,   2728
   1958,   2580,   2581,   2730,   2729
   1959,   2581,   2582,   2731,   2730
   1960,   2582,   2583,   2732,   2731
   1961,   2583,   2584,   2733,   2732
   1962,   2584,   2585,   2734,   2733
   1963,   2585,   2586,   2735,   2734
   1964,   2586,   2587,   2736,   2735
   1965,   2587,   2588,   2737,   2736
   1966,   2588,   2589,   2738,   2737
   1967,   2589,   2590,   2739,   2738
   1968,   2590,   2591,   2740,   2739
   1969,   2591,   2592,   2741,   2740
   1970,   2592,   2593,   2742,   2741
   1971,   2593,   2594,   2743,   2742
   1972,   2594,   2595,   2744,   2743
   1973,   2595,   2596,   2745,   2744
   1974,   2596,   2597,   2746,   2745
** ... 122 like lines cut
*ELEMENT, TYPE=S4, ELSET=P4
   2097,   2719,   2720,   2869,   2868
   2098,   2720,   2721,   2870,   2869
   2099,   2721,   2722,   2871,   2870
   2100,   2722,   2117,   2118,   2871
*ELEMENT, TYPE=S4, ELSET=P2
   2101,   2272,   2723,   2872,   2271
   2102,   2723,   2724,   2873,   2872
   2103,   2724,   2725,   2874,   2873
   2104,   2725,   2726,   2875,   2874
   2105,   2726,   2727,   2876,   2875
   2106,   2727,   2728,   2877,   2876
   2107,   2728,   2729,   2878,   2877
   2108,   2729,   2730,   2879,   2878
   2109,   2730,   2731,   2880,   2879
   2110,   2731,   2732,   2881,   2880
   2111,   2732,   2733,   2882,   2881
   2112,   2733,   2734,   2883,   2882
   2113,   2734,   2735,   2884,   2883
   2114,   2735,   2736,   2885,   2884
   2115,   2736,   2737,   2886,   2885
   2116,   2737,   2738,   2887,   2886
   2117,   2738,   2739,   2888,   2887
   2118,   2739,   2740,   2889,   2888
   2119,   2740,   2741,   2890,   2889
   2120,   2741,   2742,   2891,   2890
** ... 280 like lines cut
*ELEMENT, TYPE=S4, ELSET=P3
   2401,   3021,   3022,   3325,   3324
   2402,   3022,   3023,   3326,   3325
   2403,   3023,   3024,   3327,   3326
   2404,   3024,   3025,   3328,   3327
   2405,   3025,   3026,   3329,   3328
   2406,   3026,   3027,   3330,   3329
   2407,   3027,   3028,   3331,   3330
   2408,   3028,   3029,   3332,   3331
   2409,   3029,   3030,   3333,   3332
   2410,   3030,   3031,   3334,   3333
   2411,   3031,   3032,   3335,   3334
   2412,   3032,   3033,   3336,   3335
   2413,   3033,   3034,   3337,   3336
   2414,   3034,   3035,   3338,   3337
   2415,   3035,   3036,   3339,   3338
   2416,   3036,   3037,   3340,   3339
   2417,   3037,   3038,   3341,   3340
   2418,   3038,   3039,   3342,   3341
   2419,   3039,   3040,   3343,   3342
   2420,   3040,   3041,   3344,   3343
** ... 580 like lines cut
*ELEMENT, TYPE=S4, ELSET=P4
   3001,   3776,   3777,   4088,   4087
   3002,   3777,   3778,   4089,   4088
   3003,   3778,   3779,   4090,   4089
   3004,   3779,   3780,   4091,   4090
*ELEMENT, TYPE=S4, ELSET=P2
   3005,   3780,   3781,   4092,   4091
   3006,   3781,   3782,   4093,   4092
   3007,   3782,   3783,   4094,   4093
   3008,   3783,   3784,   4095,   4094
   3009,   3784,   3785,   4096,   4095
   3010,   3785,   3786,   4097,   4096
   3011,   3786,   3787,   4098,   4097
   3012,   3787,   3788,   4099,   4098
   3013,   3788,   3789,   4100,   4099
   3014,   3789,   3790,   4101,   4100
   3015,   3790,   3791,   4102,   4101
   3016,   3791,   3792,   4103,   4102
   3017,   3792,   3793,   4104,   4103
   3018,   3793,   3794,   4105,   4104
   3019,   3794,   3795,   4106,   4105
   3020,   3795,   3796,   4107,   4106
   3021,   3796,   3797,   4108,   4107
   3022,   3797,   3798,   4109,   4108
   3023,   3798,   3799,   4110,   4109
   3024,   3799,   3800,   4111,   4110
** ... 122 like lines cut
*ELEMENT, TYPE=S4, ELSET=P4
   3147,   3922,   3923,   4234,   4233
   3148,   3923,   3924,   4235,   4234
   3149,   3924,   3925,   4236,   4235
   3150,   3925,   3926,   3927,   4236
   3151,   4087,   4088,   4237,   4086
   3152,   4088,   4089,   4238,   4237
   3153,   4089,   4090,   4239,   4238
   3154,   4090,   4091,   4240,   4239
*ELEMENT, TYPE=S4, ELSET=P2
   3155,   4091,   4092,   4241,   4240
   3156,   4092,   4093,   4242,   4241
   3157,   4093,   4094,   4243,   4242
   3158,   4094,   4095,   4244,   4243
   3159,   4095,   4096,   4245,   4244
   3160,   4096,   4097,   4246,   4245
   3161,   4097,   4098,   4247,   4246
   3162,   4098,   4099,   4248,   4247
   3163,   4099,   4100,   4249,   4248
   3164,   4100,   4101,   4250,   4249
   3165,   4101,   4102,   4251,   4250
   3166,   4102,   4103,   4252,   4251
   3167,   4103,   4104,   4253,   4252
   3168,   4104,   4105,   4254,   4253
   3169,   4105,   4106,   4255,   4254
   3170,   4106,   4107,   4256,   4255
   3171,   4107,   4108,   4257,   4256
   3172,   4108,   4109,   4258,   4257
   3173,   4109,   4110,   4259,   4258
   3174,   4110,   4111,   4260,   4259
** ... 122 like lines cut
*ELEMENT, TYPE=S4, ELSET=P4
   3297,   4233,   4234,   4383,   4382
   3298,   4234,   4235,   4384,   4383
   3299,   4235,   4236,   4385,   4384
   3300,   4236,   3927,   3928,   4385
   3301,   4086,   4237,   4386,   4085
   3302,   4237,   4238,   4387,   4386
   3303,   4238,   4239,   4388,   4387
   3304,   4239,   4240,   4389,   4388
*ELEMENT, TYPE=S4, ELSET=P2
   3305,   4240,   4241,   4390,   4389
   3306,   4241,   4242,   4391,   4390
   3307,   4242,   4243,   4392,   4391
   3308,   4243,   4244,   4393,   4392
   3309,   4244,   4245,   4394,   4393
   3310,   4245,   4246,   4395,   4394
   3311,   4246,   4247,   4396,   4395
   3312,   4247,   4248,   4397,   4396
   3313,   4248,   4249,   4398,   4397
   3314,   4249,   4250,   4399,   4398
   3315,   4250,   4251,   4400,   4399
   3316,   4251,   4252,   4401,   4400
   3317,   4252,   4253,   4402,   4401
   3318,   4253,   4254,   4403,   4402
   3319,   4254,   4255,   4404,   4403
   3320,   4255,   4256,   4405,   4404
   3321,   4256,   4257,   4406,   4405
   3322,   4257,   4258,   4407,   4406
   3323,   4258,   4259,   4408,   4407
   3324,   4259,   4260,   4409,   4408
** ... 122 like lines cut
*ELEMENT, TYPE=S4, ELSET=P4
   3447,   4382,   4383,   4532,   4531
   3448,   4383,   4384,   4533,   4532
   3449,   4384,   4385,   4534,   4533
   3450,   4385,   3928,   3929,   4534
   3451,   4085,   4386,   4535,   4084
   3452,   4386,   4387,   4536,   4535
   3453,   4387,   4388,   4537,   4536
   3454,   4388,   4389,   4538,   4537
*ELEMENT, TYPE=S4, ELSET=P2
   3455,   4389,   4390,   4539,   4538
   3456,   4390,   4391,   4540,   4539
   3457,   4391,   4392,   4541,   4540
   3458,   4392,   4393,   4542,   4541
   3459,   4393,   4394,   4543,   4542
   3460,   4394,   4395,   4544,   4543
   3461,   4395,   4396,   4545,   4544
   3462,   4396,   4397,   4546,   4545
   3463,   4397,   4398,   4547,   4546
   3464,   4398,   4399,   4548,   4547
   3465,   4399,   4400,   4549,   4548
   3466,   4400,   4401,   4550,   4549
   3467,   4401,   4402,   4551,   4550
   3468,   4402,   4403,   4552,   4551
   3469,   4403,   4404,   4553,   4552
   3470,   4404,   4405,   4554,   4553
   3471,   4405,   4406,   4555,   4554
   3472,   4406,   4407,   4556,   4555
   3473,   4407,   4408,   4557,   4556
   3474,   4408,   4409,   4558,   4557
** ... 122 like lines cut
*ELEMENT, TYPE=S4, ELSET=P4
   3597,   4531,   4532,   4681,   4680
   3598,   4532,   4533,   4682,   4681
   3599,   4533,   4534,   4683,   4682
   3600,   4534,   3929,   3930,   4683
*ELEMENT, TYPE=S4, ELSET=P2
   3601,   4084,   4535,   4684,   4083
   3602,   4535,   4536,   4685,   4684
   3603,   4536,   4537,   4686,   4685
   3604,   4537,   4538,   4687,   4686
   3605,   4538,   4539,   4688,   4687
   3606,   4539,   4540,   4689,   4688
   3607,   4540,   4541,   4690,   4689
   3608,   4541,   4542,   4691,   4690
   3609,   4542,   4543,   4692,   4691
   3610,   4543,   4544,   4693,   4692
   3611,   4544,   4545,   4694,   4693
   3612,   4545,   4546,   4695,   4694
   3613,   4546,   4547,   4696,   4695
   3614,   4547,   4548,   4697,   4696
   3615,   4548,   4549,   4698,   4697
   3616,   4549,   4550,   4699,   4698
   3617,   4550,   4551,   4700,   4699
   3618,   4551,   4552,   4701,   4700
   3619,   4552,   4553,   4702,   4701
   3620,   4553,   4554,   4703,   4702
** ... 280 like lines cut
*ELEMENT, TYPE=S4, ELSET=P3
   3901,   4833,   4834,   5137,   5136
   3902,   4834,   4835,   5138,   5137
   3903,   4835,   4836,   5139,   5138
   3904,   4836,   4837,   5140,   5139
   3905,   4837,   4838,   5141,   5140
   3906,   4838,   4839,   5142,   5141
   3907,   4839,   4840,   5143,   5142
   3908,   4840,   4841,   5144,   5143
   3909,   4841,   4842,   5145,   5144
   3910,   4842,   4843,   5146,   5145
   3911,   4843,   4844,   5147,   5146
   3912,   4844,   4845,   5148,   5147
   3913,   4845,   4846,   5149,   5148
   3914,   4846,   4847,   5150,   5149
   3915,   4847,   4848,   5151,   5150
   3916,   4848,   4849,   5152,   5151
   3917,   4849,   4850,   5153,   5152
   3918,   4850,   4851,   5154,   5153
   3919,   4851,   4852,   5155,   5154
   3920,   4852,   4853,   5156,   5155
** ... 580 like lines cut
*ELEMENT, TYPE=S4, ELSET=P4
   4501,   5588,   5589,   5900,   5899
   4502,   5589,   5590,   5901,   5900
   4503,   5590,   5591,   5902,   5901
   4504,   5591,   5592,   5903,   5902
*ELEMENT, TYPE=S4, ELSET=P2
   4505,   5592,   5593,   5904,   5903
   4506,   5593,   5594,   5905,   5904
   4507,   5594,   5595,   5906,   5905
   4508,   5595,   5596,   5907,   5906
   4509,   5596,   5597,   5908,   5907
   4510,   5597,   5598,   5909,   5908
   4511,   5598,   5599,   5910,   5909
   4512,   5599,   5600,   5911,   5910
   4513,   5600,   5601,   5912,   5911
   4514,   5601,   5602,   5913,   5912
   4515,   5602,   5603,   5914,   5913
   4516,   5603,   5604,   5915,   5914
   4517,   5604,   5605,   5916,   5915
   4518,   5605,   5606,   5917,   5916
   4519,   5606,   5607,   5918,   5917
   4520,   5607,   5608,   5919,   5918
   4521,   5608,   5609,   5920,   5919
   4522,   5609,   5610,   5921,   5920
   4523,   5610,   5611,   5922,   5921
   4524,   5611,   5612,   5923,   5922
** ... 122 like lines cut
*ELEMENT, TYPE=S4, ELSET=P4
   4647,   5734,   5735,   6046,   6045
   4648,   5735,   5736,   6047,   6046
   4649,   5736,   5737,   6048,   6047
   4650,   5737,   5738,   5739,   6048
   4651,   5899,   5900,   6049,   5898
   4652,   5900,   5901,   6050,   6049
   4653,   5901,   5902,   6051,   6050
   4654,   5902,   5903,   6052,   6051
*ELEMENT, TYPE=S4, ELSET=P2
   4655,   5903,   5904,   6053,   6052
   4656,   5904,   5905,   6054,   6053
   4657,   5905,   5906,   6055,   6054
   4658,   5906,   5907,   6056,   6055
   4659,   5907,   5908,   6057,   6056
   4660,   5908,   5909,   6058,   6057
   4661,   5909,   5910,   6059,   6058
   4662,   5910,   5911,   6060,   6059
   4663,   5911,   5912,   6061,   6060
   4664,   5912,   5913,   6062,   6061
   4665,   5913,   5914,   6063,   6062
   4666,   5914,   5915,   6064,   6063
   4667,   5915,   5916,   6065,   6064
   4668,   5916,   5917,   6066,   6065
   4669,   5917,   5918,   6067,   6066
   4670,   5918,   5919,   6068,   6067
   4671,   5919,   5920,   6069,   6068
   4672,   5920,   5921,   6070,   6069
   4673,   5921,   5922,   6071,   6070
   4674,   5922,   5923,   6072,   6071
** ... 122 like lines cut
*ELEMENT, TYPE=S4, ELSET=P4
   4797,   6045,   6046,   6195,   6194
   4798,   6046,   6047,   6196,   6195
   4799,   6047,   6048,   6197,   6196
   4800,   6048,   5739,   5740,   6197
   4801,   5898,   6049,   6198,   5897
   4802,   6049,   6050,   6199,   6198
   4803,   6050,   6051,   6200,   6199
   4804,   6051,   6052,   6201,   6200
*ELEMENT, TYPE=S4, ELSET=P2
   4805,   6052,   6053,   6202,   6201
   4806,   6053,   6054,   6203,   6202
   4807,   6054,   6055,   6204,   6203
   4808,   6055,   6056,   6205,   6204
   4809,   6056,   6057,   6206,   6205
   4810,   6057,   6058,   6207,   6206
   4811,   6058,   6059,   6208,   6207
   4812,   6059,   6060,   6209,   6208
   4813,   6060,   6061,   6210,   6209
   4814,   6061,   6062,   6211,   6210
   4815,   6062,   6063,   6212,   6211
   4816,   6063,   6064,   6213,   6212
   4817,   6064,   6065,   6214,   6213
   4818,   6065,   6066,   6215,   6214
   4819,   6066,   6067,   6216,   6215
   4820,   6067,   6068,   6217,   6216
   4821,   6068,   6069,   6218,   6217
   4822,   6069,   6070,   6219,   6218
   4823,   6070,   6071,   6220,   6219
   4824,   6071,   6072,   6221,   6220
** ... 122 like lines cut
*ELEMENT, TYPE=S4, ELSET=P4
   4947,   6194,   6195,   6344,   6343
   4948,   6195,   6196,   6345,   6344
   4949,   6196,   6197,   6346,   6345
   4950,   6197,   5740,   5741,   6346
   4951,   5897,   6198,   6347,   5896
   4952,   6198,   6199,   6348,   6347
   4953,   6199,   6200,   6349,   6348
   4954,   6200,   6201,   6350,   6349
*ELEMENT, TYPE=S4, ELSET=P2
   4955,   6201,   6202,   6351,   6350
   4956,   6202,   6203,   6352,   6351
   4957,   6203,   6204,   6353,   6352
   4958,   6204,   6205,   6354,   6353
   4959,   6205,   6206,   6355,   6354
   4960,   6206,   6207,   6356,   6355
   4961,   6207,   6208,   6357,   6356
   4962,   6208,   6209,   6358,   6357
   4963,   6209,   6210,   6359,   6358
   4964,   6210,   6211,   6360,   6359
   4965,   6211,   6212,   6361,   6360
   4966,   6212,   6213,   6362,   6361
   4967,   6213,   6214,   6363,   6362
   4968,   6214,   6215,   6364,   6363
   4969,   6215,   6216,   6365,   6364
   4970,   6216,   6217,   6366,   6365
   4971,   6217,   6218,   6367,   6366
   4972,   6218,   6219,   6368,   6367
   4973,   6219,   6220,   6369,   6368
   4974,   6220,   6221,   6370,   6369
** ... 122 like lines cut
*ELEMENT, TYPE=S4, ELSET=P4
   5097,   6343,   6344,   6493,   6492
   5098,   6344,   6345,   6494,   6493
   5099,   6345,   6346,   6495,   6494
   5100,   6346,   5741,   5742,   6495
*ELEMENT, TYPE=S4, ELSET=P2
   5101,   5896,   6347,   6496,   5895
   5102,   6347,   6348,   6497,   6496
   5103,   6348,   6349,   6498,   6497
   5104,   6349,   6350,   6499,   6498
   5105,   6350,   6351,   6500,   6499
   5106,   6351,   6352,   6501,   6500
   5107,   6352,   6353,   6502,   6501
   5108,   6353,   6354,   6503,   6502
   5109,   6354,   6355,   6504,   6503
   5110,   6355,   6356,   6505,   6504
   5111,   6356,   6357,   6506,   6505
   5112,   6357,   6358,   6507,   6506
   5113,   6358,   6359,   6508,   6507
   5114,   6359,   6360,   6509,   6508
   5115,   6360,   6361,   6510,   6509
   5116,   6361,   6362,   6511,   6510
   5117,   6362,   6363,   6512,   6511
   5118,   6363,   6364,   6513,   6512
   5119,   6364,   6365,   6514,   6513
   5120,   6365,   6366,   6515,   6514
** ... 280 like lines cut
*ELEMENT, TYPE=S4, ELSET=P3
   5401,   6645,   6646,   6949,   6948
   5402,   6646,   6647,   6950,   6949
   5403,   6647,   6648,   6951,   6950
   5404,   6648,   6649,   6952,   6951
   5405,   6649,   6650,   6953,   6952
   5406,   6650,   6651,   6954,   6953
   5407,   6651,   6652,   6955,   6954
   5408,   6652,   6653,   6956,   6955
   5409,   6653,   6654,   6957,   6956
   5410,   6654,   6655,   6958,   6957
   5411,   6655,   6656,   6959,   6958
   5412,   6656,   6657,   6960,   6959
   5413,   6657,   6658,   6961,   6960
   5414,   6658,   6659,   6962,   6961
   5415,   6659,   6660,   6963,   6962
   5416,   6660,   6661,   6964,   6963
   5417,   6661,   6662,   6965,   6964
   5418,   6662,   6663,   6966,   6965
   5419,   6663,   6664,   6967,   6966
   5420,   6664,   6665,   6968,   6967
** ... 580 like lines cut
*ELEMENT, TYPE=S4, ELSET=P1
   6001,   7400,   7401,   8000,   7999
   6002,   7401,   7402,   8001,   8000
   6003,   7402,   7403,   8002,   8001
   6004,   7403,   7404,   8003,   8002
   6005,   7404,   7405,   8004,   8003
   6006,   7405,   7406,   8005,   8004
   6007,   7406,   7407,   8006,   8005
   6008,   7407,   7408,   8007,   8006
   6009,   7408,   7409,   8008,   8007
   6010,   7409,   7410,   8009,   8008
   6011,   7410,   7411,   8010,   8009
   6012,   7411,   7412,   8011,   8010
   6013,   7412,   7413,   8012,   8011
   6014,   7413,   7414,   8013,   8012
   6015,   7414,   7415,   8014,   8013
   6016,   7415,   7416,   8015,   8014
   6017,   7416,   7417,   8016,   8015
   6018,   7417,   7418,   8017,   8016
   6019,   7418,   7419,   8018,   8017
   6020,   7419,   7420,   8019,   8018
** ... 22480 like lines cut
*ELSET, ELSET=OUT_PLT, GENERATE
1,28500,1
** Femap Property 1 : Plate
*SHELL SECTION, ELSET=P1, MATERIAL=M1
      0.01,          
** Femap Property 2 : Web
*SHELL SECTION, ELSET=P2, MATERIAL=M1
    0.0078,          
** Femap Property 3 : Flange
*SHELL SECTION, ELSET=P3, MATERIAL=M1
     0.004,          
** Femap Property 4 : Thick
*SHELL SECTION, ELSET=P4, MATERIAL=M1
      0.07,          
** Femap Material 1 : Steel
*MATERIAL, NAME=M1
*ELASTIC, TYPE=ISOTROPIC
   2.1E+11,       0.3,        0.
*EQUATION
    2
  307,2,-1.,  308,2,1.
    2
  308,2,-1.,  309,2,1.
    2
  309,2,-1.,  310,2,1.
    2
  310,2,-1.,  311,2,1.
    2
  311,2,-1.,  312,2,1.
    2
  312,2,-1.,  1,2,1.
**
    2
  2270,2,-1.,  2271,2,1.
    2
  2271,2,-1.,  2272,2,1.
    2
  2272,2,-1.,  2273,2,1.
    2
  2273,2,-1.,  2274,2,1.
    2
  2274,2,-1.,  2275,2,1.
    2
  2275,2,-1.,  1964,2,1.
**
    2
  4082,2,-1.,  4083,2,1.
    2
  4083,2,-1.,  4084,2,1.
    2
  4084,2,-1.,  4085,2,1.
    2
  4085,2,-1.,  4086,2,1.
    2
  4086,2,-1.,  4087,2,1.
    2
  4087,2,-1.,  3776,2,1.
**
    2
  5894,2,-1.,  5895,2,1.
    2
  5895,2,-1.,  5896,2,1.
    2
  5896,2,-1.,  5897,2,1.
    2
  5897,2,-1.,  5898,2,1.
    2
  5898,2,-1.,  5899,2,1.
    2
  5899,2,-1.,  5588,2,1.
******
    2
  151,2,-1.,  152,2,1.
    2
  152,2,-1.,  153,2,1.
    2
  153,2,-1.,  154,2,1.
    2
  154,2,-1.,  155,2,1.
    2
  155,2,-1.,  156,2,1.
    2
  156,2,-1.,  157,2,1.
**
    2
  2114,2,-1.,  2115,2,1.
    2
  2115,2,-1.,  2116,2,1.
    2
  2116,2,-1.,  2117,2,1.
    2
  2117,2,-1.,  2118,2,1.
    2
  2118,2,-1.,  2119,2,1.
    2
  2119,2,-1.,  2120,2,1.
**
    2
  3926,2,-1.,  3927,2,1.
    2
  3927,2,-1.,  3928,2,1.
    2
  3928,2,-1.,  3929,2,1.
    2
  3929,2,-1.,  3930,2,1.
    2
  3930,2,-1.,  3931,2,1.
    2
  3931,2,-1.,  3932,2,1.
**
    2
  5738,2,-1.,  5739,2,1.
    2
  5739,2,-1.,  5740,2,1.
    2
  5740,2,-1.,  5741,2,1.
    2
  5741,2,-1.,  5742,2,1.
    2
  5742,2,-1.,  5743,2,1.
    2
  5743,2,-1.,  5744,2,1.
****NA in x
    2
  312,1,-1.,  2275,1,1.
    2
  2275,1,-1.,  4087,1,1.
    2
  4087,1,-1.,  5899,1,1.
**
    2
  152,1,-1.,  2115,1,1.
    2
  2115,1,-1.,  3927,1,1.
    2
  3927,1,-1.,  5739,1,1.
*******
****** Movable end equal U1
    2
    7400,1,-1.,    7999,1,1.
    2
    7999,1,-1.,    7998,1,1.
    2
    7998,1,-1.,    7997,1,1.
    2
    7997,1,-1.,    7996,1,1.
    2
    7996,1,-1.,    7995,1,1.
    2
    7995,1,-1.,    7994,1,1.
    2
    7994,1,-1.,    7993,1,1.
    2
    7993,1,-1.,    7992,1,1.
    2
    7992,1,-1.,    7991,1,1.
    2
    7991,1,-1.,    7990,1,1.
** ... 280 like lines cut
****** Unmovable end equal U1
    2
    7550,1,-1.,    7551,1,1.
    2
    7551,1,-1.,    7552,1,1.
    2
    7552,1,-1.,    7553,1,1.
    2
    7553,1,-1.,    7554,1,1.
    2
    7554,1,-1.,    7555,1,1.
    2
    7555,1,-1.,    7556,1,1.
    2
    7556,1,-1.,    7557,1,1.
    2
    7557,1,-1.,    7558,1,1.
    2
    7558,1,-1.,    7559,1,1.
    2
    7559,1,-1.,    7560,1,1.
** ... 280 like lines cut
** Step 1 -------------------------------------------------------
*STEP, INC=100
Forces
*BUCKLE
    1,,,400 
*OUTPUT, FIELD, FREQUENCY=1
*NODE OUTPUT
    U,
** Femap Constraint Set : Constr 
*BOUNDARY, OP=NEW
          1,    3
        151,    3
       1964,    3
       2114,    3
       3776,    3
       3926,    3
       5588,    3
       5738,    3
       7400,    3
       7401,    3
       7402,    3
       7403,    3
       7404,    3
       7405,    3
       7406,    3
       7407,    3
       7408,    3
       7409,    3
       7410,    3
       7411,    3
** ... 63 like lines cut
**
       7475,    1
       7475,    3
       7476,    3
       7477,    3
       7478,    3
       7479,    3
       7480,    3
       7481,    3
       7482,    3
       7483,    3
       7484,    3
       7485,    3
       7486,    3
       7487,    3
       7488,    3
       7489,    3
       7490,    3
       7491,    3
       7492,    3
       7493,    3
** ... 277 like lines cut
**
       7775,    1
       7775,    3
       7776,    3
       7777,    3
       7778,    3
       7779,    3
       7780,    3
       7781,    3
       7782,    3
       7783,    3
       7784,    3
       7785,    3
       7786,    3
       7787,    3
       7788,    3
       7789,    3
       7790,    3
       7791,    3
       7792,    3
       7793,    3
** ... 202 like lines cut
**
      19100,    1
      19100,    2
**
**        152,    1
**       2115,    1
**       3927,    1
**       5739,    1
** Femap Load Set : Forces 
*CLOAD, OP=NEW
        152,    1,  -250000.
       2115,    1,  -250000.
       3927,    1,  -250000.
       5739,    1,  -250000.
        312,    1,   250000.
       2275,    1,   250000.
       4087,    1,   250000.
       5899,    1,   250000.
*END STEP
