*Heading
** Job name: 24ceab74-f221-4d89-ab92-ea6eeb5249cd Model name: flat_panel
** Generated by: Abaqus/CAE 2020
*Preprint, echo=NO, model=NO, history=NO, contact=NO
**
** PARTS
**
*Part, name=panel
*Node
      1,          1.5,           0.,           3.
      2,   1.47222221,           0.,           3.
      3,   1.44444442,           0.,           3.
      4,   1.41666663,           0.,           3.
      5,   1.38888884,           0.,           3.
      6,   1.36111116,           0.,           3.
      7,   1.33333337,           0.,           3.
      8,   1.30555558,           0.,           3.
      9,   1.27777779,           0.,           3.
     10,         1.25,           0.,           3.
     11,   1.22222221,           0.,           3.
     12,   1.19444442,           0.,           3.
     13,   1.16666663,           0.,           3.
     14,   1.13888884,           0.,           3.
     15,   1.11111116,           0.,           3.
     16,   1.08333337,           0.,           3.
     17,   1.05555558,           0.,           3.
     18,   1.02777779,           0.,           3.
     19,           1.,           0.,           3.
     20,  0.972222209,           0.,           3.
** ... 11861 like lines cut
*Element, type=S4R
    1,     1,     2,   111,   110
    2,     2,     3,   112,   111
    3,     3,     4,   113,   112
    4,     4,     5,   114,   113
    5,     5,     6,   115,   114
    6,     6,     7,   116,   115
    7,     7,     8,   117,   116
    8,     8,     9,   118,   117
    9,     9,    10,   119,   118
   10,    10,    11,   120,   119
   11,    11,    12,   121,   120
   12,    12,    13,   122,   121
   13,    13,    14,   123,   122
   14,    14,    15,   124,   123
   15,    15,    16,   125,   124
   16,    16,    17,   126,   125
   17,    17,    18,   127,   126
   18,    18,    19,   128,   127
   19,    19,    20,   129,   128
   20,    20,    21,   130,   129
** ... 11644 like lines cut
*Nset, nset=PlateFace, generate
     1,  11881,      1
*Elset, elset=PlateFace, generate
     1,  11664,      1
*Nset, nset=_PickedSet6_#1, internal, generate
     1,  11881,      1
*Elset, elset=_PickedSet6_#1, internal, generate
     1,  11664,      1
** Section: panel
*Shell Section, elset=_PickedSet6_#1, material=steel
0.0352228, 5
*End Part
**  
**
** ASSEMBLY
**
*Assembly, name=Assembly
**  
*Instance, name=panel, part=panel
        -1.5,           0.,           0.
        -1.5,           0.,           0., -0.922649730810374, 0.577350269189626, 0.577350269189626,         120.
*End Instance
**  
*Nset, nset=load_set, instance=panel
 4993, 4994, 4995, 4996, 4997, 4998, 4999, 5000, 5001, 5002, 5003, 5004, 5102, 5103, 5104, 5105
 5106, 5107, 5108, 5109, 5110, 5111, 5112, 5113, 5211, 5212, 5213, 5214, 5215, 5216, 5217, 5218
 5219, 5220, 5221, 5222, 5320, 5321, 5322, 5323, 5324, 5325, 5326, 5327, 5328, 5329, 5330, 5331
 5429, 5430, 5431, 5432, 5433, 5434, 5435, 5436, 5437, 5438, 5439, 5440, 5538, 5539, 5540, 5541
 5542, 5543, 5544, 5545, 5546, 5547, 5548, 5549, 5647, 5648, 5649, 5650, 5651, 5652, 5653, 5654
 5655, 5656, 5657, 5658, 5756, 5757, 5758, 5759, 5760, 5761, 5762, 5763, 5764, 5765, 5766, 5767
 5865, 5866, 5867, 5868, 5869, 5870, 5871, 5872, 5873, 5874, 5875, 5876, 5974, 5975, 5976, 5977
 5978, 5979, 5980, 5981, 5982, 5983, 5984, 5985, 6083, 6084, 6085, 6086, 6087, 6088, 6089, 6090
 6091, 6092, 6093, 6094, 6192, 6193, 6194, 6195, 6196, 6197, 6198, 6199, 6200, 6201, 6202, 6203
 6301, 6302, 6303, 6304, 6305, 6306, 6307, 6308, 6309, 6310, 6311, 6312, 6410, 6411, 6412, 6413
 6414, 6415, 6416, 6417, 6418, 6419, 6420, 6421, 6519, 6520, 6521, 6522, 6523, 6524, 6525, 6526
 6527, 6528, 6529, 6530, 6628, 6629, 6630, 6631, 6632, 6633, 6634, 6635, 6636, 6637, 6638, 6639
*Nset, nset=plate-edge, instance=panel
     1,     2,     3,     4,     5,     6,     7,     8,     9,    10,    11,    12,    13,    14,    15,    16
    17,    18,    19,    20,    21,    22,    23,    24,    25,    26,    27,    28,    29,    30,    31,    32
    33,    34,    35,    36,    37,    38,    39,    40,    41,    42,    43,    44,    45,    46,    47,    48
    49,    50,    51,    52,    53,    54,    55,    56,    57,    58,    59,    60,    61,    62,    63,    64
    65,    66,    67,    68,    69,    70,    71,    72,    73,    74,    75,    76,    77,    78,    79,    80
    81,    82,    83,    84,    85,    86,    87,    88,    89,    90,    91,    92,    93,    94,    95,    96
    97,    98,    99,   100,   101,   102,   103,   104,   105,   106,   107,   108,   109,   110,   218,   219
   327,   328,   436,   437,   545,   546,   654,   655,   763,   764,   872,   873,   981,   982,  1090,  1091
  1199,  1200,  1308,  1309,  1417,  1418,  1526,  1527,  1635,  1636,  1744,  1745,  1853,  1854,  1962,  1963
  2071,  2072,  2180,  2181,  2289,  2290,  2398,  2399,  2507,  2508,  2616,  2617,  2725,  2726,  2834,  2835
  2943,  2944,  3052,  3053,  3161,  3162,  3270,  3271,  3379,  3380,  3488,  3489,  3597,  3598,  3706,  3707
  3815,  3816,  3924,  3925,  4033,  4034,  4142,  4143,  4251,  4252,  4360,  4361,  4469,  4470,  4578,  4579
  4687,  4688,  4796,  4797,  4905,  4906,  5014,  5015,  5123,  5124,  5232,  5233,  5341,  5342,  5450,  5451
  5559,  5560,  5668,  5669,  5777,  5778,  5886,  5887,  5995,  5996,  6104,  6105,  6213,  6214,  6322,  6323
  6431,  6432,  6540,  6541,  6649,  6650,  6758,  6759,  6867,  6868,  6976,  6977,  7085,  7086,  7194,  7195
  7303,  7304,  7412,  7413,  7521,  7522,  7630,  7631,  7739,  7740,  7848,  7849,  7957,  7958,  8066,  8067
  8175,  8176,  8284,  8285,  8393,  8394,  8502,  8503,  8611,  8612,  8720,  8721,  8829,  8830,  8938,  8939
  9047,  9048,  9156,  9157,  9265,  9266,  9374,  9375,  9483,  9484,  9592,  9593,  9701,  9702,  9810,  9811
  9919,  9920, 10028, 10029, 10137, 10138, 10246, 10247, 10355, 10356, 10464, 10465, 10573, 10574, 10682, 10683
 10791, 10792, 10900, 10901, 11009, 11010, 11118, 11119, 11227, 11228, 11336, 11337, 11445, 11446, 11554, 11555
** ... 7 like lines cut
*End Assembly
** 
** MATERIALS
** 
*Material, name=steel
*Density
7850., 296.15
*Elastic
 2.1e+11, 0.3
*Plastic
    3.55e+08,    0.
    3.55e+08, 0.006
 3.56713e+08, 0.016
 3.60895e+08, 0.026
 3.68869e+08, 0.046
  3.7638e+08, 0.066
 3.83488e+08, 0.086
** 
** BOUNDARY CONDITIONS
** 
** Name: Edge-BC Type: Displacement/Rotation
*Boundary
plate-edge, 1, 1
plate-edge, 2, 2
plate-edge, 3, 3
** ----------------------------------------------------------------
** 
** STEP: Step-1
** 
*Step, name=Step-1, nlgeom=NO, inc=50
*Static
1., 1., 1e-05, 1.
** 
** LOADS
** 
** Name: Load   Type: Concentrated force
*Cload
load_set, 1, 0.
load_set, 2, 0.
load_set, 3, 100.
** 
** OUTPUT REQUESTS
** 
*Restart, write, frequency=0
** 
** FIELD OUTPUT: F-Output-1
** 
*Output, field, variable=PRESELECT
** 
** HISTORY OUTPUT: H-Output-1
** 
*Output, history, variable=PRESELECT
*End Step
