*Heading
** Job name: eigen-web-panel Model name: eigen-web-panel
** Generated by: Abaqus/CAE 2020
*Preprint, echo=NO, model=NO, history=NO, contact=NO
**
** PARTS
**
*Part, name=panel
*Node
      1,           0.,           0.,           3.
      2,           0.,           0.,           0.
      3,          1.5,           0.,           0.
      4,          1.5,           0.,           3.
      5,         -1.5,           0.,           3.
      6,         -1.5,           0.,           0.
      7,           0.,        0.125,           3.
      8,           0.,        0.125,           0.
      9,           0.,           0.,   2.98000002
     10,           0.,           0.,   2.96000004
     11,           0.,           0.,   2.94000006
     12,           0.,           0.,   2.92000008
     13,           0.,           0.,    2.9000001
     14,           0.,           0.,   2.88000011
     15,           0.,           0.,    2.8599999
     16,           0.,           0.,   2.83999991
     17,           0.,           0.,   2.81999993
     18,           0.,           0.,   2.79999995
     19,           0.,           0.,   2.77999997
     20,           0.,           0.,   2.75999999
** ... 23687 like lines cut
*Element, type=S4R
    1,     1,     9,   911,   454
    2,     9,    10,   912,   911
    3,    10,    11,   913,   912
    4,    11,    12,   914,   913
    5,    12,    13,   915,   914
    6,    13,    14,   916,   915
    7,    14,    15,   917,   916
    8,    15,    16,   918,   917
    9,    16,    17,   919,   918
   10,    17,    18,   920,   919
   11,    18,    19,   921,   920
   12,    19,    20,   922,   921
   13,    20,    21,   923,   922
   14,    21,    22,   924,   923
   15,    22,    23,   925,   924
   16,    23,    24,   926,   925
   17,    24,    25,   927,   926
   18,    25,    26,   928,   927
   19,    26,    27,   929,   928
   20,    27,    28,   930,   929
** ... 23380 like lines cut
*Elset, elset=_PickedSet2, internal, generate
     1,  22500,      1
*Elset, elset=_PickedSet3, internal, generate
 22501,  23400,      1
*Elset, elset=_PickedSet4, internal
 22504, 22505, 22506, 22510, 22511, 22512, 22516, 22517, 22518, 23386, 23387, 23388, 23392, 23393, 23394, 23398
 23399, 23400
** Section: plate
*Shell Section, elset=_PickedSet2, material=M1
0.01, 5
** Region: (web:Picked)
*Elset, elset=_I2, internal
 22501, 22502, 22503, 22507, 22508, 22509, 22513, 22514, 22515, 22519, 22520, 22521, 22522, 22523, 22524, 22525
 22526, 22527, 22528, 22529, 22530, 22531, 22532, 22533, 22534, 22535, 22536, 22537, 22538, 22539, 22540, 22541
 22542, 22543, 22544, 22545, 22546, 22547, 22548, 22549, 22550, 22551, 22552, 22553, 22554, 22555, 22556, 22557
 22558, 22559, 22560, 22561, 22562, 22563, 22564, 22565, 22566, 22567, 22568, 22569, 22570, 22571, 22572, 22573
 22574, 22575, 22576, 22577, 22578, 22579, 22580, 22581, 22582, 22583, 22584, 22585, 22586, 22587, 22588, 22589
 22590, 22591, 22592, 22593, 22594, 22595, 22596, 22597, 22598, 22599, 22600, 22601, 22602, 22603, 22604, 22605
 22606, 22607, 22608, 22609, 22610, 22611, 22612, 22613, 22614, 22615, 22616, 22617, 22618, 22619, 22620, 22621
 22622, 22623, 22624, 22625, 22626, 22627, 22628, 22629, 22630, 22631, 22632, 22633, 22634, 22635, 22636, 22637
 22638, 22639, 22640, 22641, 22642, 22643, 22644, 22645, 22646, 22647, 22648, 22649, 22650, 22651, 22652, 22653
 22654, 22655, 22656, 22657, 22658, 22659, 22660, 22661, 22662, 22663, 22664, 22665, 22666, 22667, 22668, 22669
 22670, 22671, 22672, 22673, 22674, 22675, 22676, 22677, 22678, 22679, 22680, 22681, 22682, 22683, 22684, 22685
 22686, 22687, 22688, 22689, 22690, 22691, 22692, 22693, 22694, 22695, 22696, 22697, 22698, 22699, 22700, 22701
 22702, 22703, 22704, 22705, 22706, 22707, 22708, 22709, 22710, 22711, 22712, 22713, 22714, 22715, 22716, 22717
 22718, 22719, 22720, 22721, 22722, 22723, 22724, 22725, 22726, 22727, 22728, 22729, 22730, 22731, 22732, 22733
 22734, 22735, 22736, 22737, 22738, 22739, 22740, 22741, 22742, 22743, 22744, 22745, 22746, 22747, 22748, 22749
 22750, 22751, 22752, 22753, 22754, 22755, 22756, 22757, 22758, 22759, 22760, 22761, 22762, 22763, 22764, 22765
 22766, 22767, 22768, 22769, 22770, 22771, 22772, 22773, 22774, 22775, 22776, 22777, 22778, 22779, 22780, 22781
 22782, 22783, 22784, 22785, 22786, 22787, 22788, 22789, 22790, 22791, 22792, 22793, 22794, 22795, 22796, 22797
 22798, 22799, 22800, 22801, 22802, 22803, 22804, 22805, 22806, 22807, 22808, 22809, 22810, 22811, 22812, 22813
 22814, 22815, 22816, 22817, 22818, 22819, 22820, 22821, 22822, 22823, 22824, 22825, 22826, 22827, 22828, 22829
** ... 36 like lines cut
** Section: web
*Shell Section, elset=_I2, material=M1
0.0078, 5
** Section: local-thickness
*Shell Section, elset=_PickedSet4, material=M1
0.078, 5
*End Part
**  
**
** ASSEMBLY
**
*Assembly, name=Assembly
**  
*Instance, name=panel-1, part=panel
        -1.5,           0.,           0.
        -1.5,           0.,           0., -0.922649730810374, 0.577350269189626, 0.577350269189626,         120.
*End Instance
**  
*Nset, nset=Fixed-Follower, instance=panel-1
   1,   5, 381, 382, 383, 384, 385, 386, 387, 388, 389, 390, 391, 392, 393, 394
 395, 396, 397, 398, 399, 400, 401, 402, 403, 404, 405, 406, 407, 408, 409, 410
 411, 412, 413, 414, 415, 416, 417, 418, 419, 420, 421, 422, 423, 424, 425, 426
 427, 428, 429, 430, 431, 432, 433, 434, 435, 436, 437, 438, 439, 440, 441, 442
 443, 444, 445, 446, 447, 448, 449, 450, 451, 452, 453, 454, 455, 456, 457, 458
 459, 460, 461, 462, 463, 464, 465, 466, 467, 468, 469, 470, 471, 472, 473, 474
 475, 476, 477, 478, 479, 480, 481, 482, 483, 484, 485, 486, 487, 488, 489, 490
 491, 492, 493, 494, 495, 496, 497, 498, 499, 500, 501, 502, 503, 504, 505, 506
 507, 508, 509, 510, 511, 512, 513, 514, 515, 516, 517, 518, 519, 520, 521, 522
 523, 524, 525, 526, 527, 528
*Nset, nset=Fixed-Main, instance=panel-1
 4,
*Nset, nset=Load-Follower, instance=panel-1
   2,   6, 158, 159, 160, 161, 162, 163, 164, 165, 166, 167, 168, 169, 170, 171
 172, 173, 174, 175, 176, 177, 178, 179, 180, 181, 182, 183, 184, 185, 186, 187
 188, 189, 190, 191, 192, 193, 194, 195, 196, 197, 198, 199, 200, 201, 202, 203
 204, 205, 206, 207, 208, 209, 210, 211, 212, 213, 214, 215, 216, 217, 218, 219
 220, 221, 222, 223, 224, 225, 226, 227, 228, 229, 230, 231, 678, 679, 680, 681
 682, 683, 684, 685, 686, 687, 688, 689, 690, 691, 692, 693, 694, 695, 696, 697
 698, 699, 700, 701, 702, 703, 704, 705, 706, 707, 708, 709, 710, 711, 712, 713
 714, 715, 716, 717, 718, 719, 720, 721, 722, 723, 724, 725, 726, 727, 728, 729
 730, 731, 732, 733, 734, 735, 736, 737, 738, 739, 740, 741, 742, 743, 744, 745
 746, 747, 748, 749, 750, 751
*Nset, nset=Load-Main, instance=panel-1
 3,
*Nset, nset=Web-Follower, instance=panel-1
   1,   7,   8, 752, 753, 754, 755, 756, 757, 758, 759, 760, 761
*Nset, nset=Web-Main, instance=panel-1
 2,
*Nset, nset=_PickedSet14, internal, instance=panel-1
 757,
*Nset, nset=_PickedSet15, internal, instance=panel-1
   1,   2,   3,   4,   5,   6, 158, 159, 160, 161, 162, 163, 164, 165, 166, 167
 168, 169, 170, 171, 172, 173, 174, 175, 176, 177, 178, 179, 180, 181, 182, 183
 184, 185, 186, 187, 188, 189, 190, 191, 192, 193, 194, 195, 196, 197, 198, 199
 200, 201, 202, 203, 204, 205, 206, 207, 208, 209, 210, 211, 212, 213, 214, 215
 216, 217, 218, 219, 220, 221, 222, 223, 224, 225, 226, 227, 228, 229, 230, 231
 232, 233, 234, 235, 236, 237, 238, 239, 240, 241, 242, 243, 244, 245, 246, 247
 248, 249, 250, 251, 252, 253, 254, 255, 256, 257, 258, 259, 260, 261, 262, 263
 264, 265, 266, 267, 268, 269, 270, 271, 272, 273, 274, 275, 276, 277, 278, 279
 280, 281, 282, 283, 284, 285, 286, 287, 288, 289, 290, 291, 292, 293, 294, 295
 296, 297, 298, 299, 300, 301, 302, 303, 304, 305, 306, 307, 308, 309, 310, 311
 312, 313, 314, 315, 316, 317, 318, 319, 320, 321, 322, 323, 324, 325, 326, 327
 328, 329, 330, 331, 332, 333, 334, 335, 336, 337, 338, 339, 340, 341, 342, 343
 344, 345, 346, 347, 348, 349, 350, 351, 352, 353, 354, 355, 356, 357, 358, 359
 360, 361, 362, 363, 364, 365, 366, 367, 368, 369, 370, 371, 372, 373, 374, 375
 376, 377, 378, 379, 380, 381, 382, 383, 384, 385, 386, 387, 388, 389, 390, 391
 392, 393, 394, 395, 396, 397, 398, 399, 400, 401, 402, 403, 404, 405, 406, 407
 408, 409, 410, 411, 412, 413, 414, 415, 416, 417, 418, 419, 420, 421, 422, 423
 424, 425, 426, 427, 428, 429, 430, 431, 432, 433, 434, 435, 436, 437, 438, 439
 440, 441, 442, 443, 444, 445, 446, 447, 448, 449, 450, 451, 452, 453, 454, 455
 456, 457, 458, 459, 460, 461, 462, 463, 464, 465, 466, 467, 468, 469, 470, 471
** ... 18 like lines cut
*Nset, nset=_PickedSet26, internal, instance=panel-1
 756,
*Nset, nset=_PickedSet27, internal, instance=panel-1
 83,
** Constraint: End
*Equation
2
Load-Follower, 1, 1.
Load-Main, 1, -1.
** Constraint: Fixed
*Equation
2
Fixed-Follower, 1, 1.
Fixed-Main, 1, -1.
** Constraint: Web
*Equation
2
Web-Follower, 2, 1.
Web-Main, 2, -1.
*End Assembly
** 
** MATERIALS
** 
** Isotropic steel
*Material, name=M1
*Density
7850.,
*Elastic
 2.1e+11, 0.3
** ----------------------------------------------------------------
** 
** STEP: buckle
** 
*Step, name=buckle, nlgeom=NO, perturbation
*Buckle
5, , 10, 300
** 
** BOUNDARY CONDITIONS
** 
** Name: Centre Type: Displacement/Rotation
*Boundary, op=NEW, load case=1
_PickedSet27, 2, 2
*Boundary, op=NEW, load case=2
_PickedSet27, 2, 2
** Name: Edge Type: Displacement/Rotation
*Boundary, op=NEW, load case=1
_PickedSet15, 3, 3
*Boundary, op=NEW, load case=2
_PickedSet15, 3, 3
** Name: Fixed Type: Displacement/Rotation
*Boundary, op=NEW, load case=1
_PickedSet26, 1, 1
*Boundary, op=NEW, load case=2
_PickedSet26, 1, 1
** 
** LOADS
** 
** Name: Load-1   Type: Concentrated force
*Cload
_PickedSet14, 1, 1e+06
** 
** OUTPUT REQUESTS
** 
*Restart, write, frequency=0
** 
** FIELD OUTPUT: F-Output-1
** 
*Output, field, variable=PRESELECT
*End Step
