1

   Abaqus 2020                                  Date 08-Sep-2025   Time 19:35:42
   For use by UNIVERSITY OF BRITISH COLUMBIA under license from Dassault Systemes or its subsidiary.

                                                                                 
                                                                                 
 STEP    1     INCREMENT     1     STEP TIME    0.00    


                        S T E P       1     C A L C U L A T I O N   O F   E I G E N V A L U E S

                                            F O R   B U C K L I N G   P R E D I C T I O N



                                                                                          

     THE SUBSPACE ITERATION METHOD IS USED FOR THIS ANALYSIS
     NUMBER OF EIGENVALUES                      5
     MAXIMUM NUMBER OF ITERATIONS                    300
     NUMBER OF VECTORS IN ITERATION                   10
     THE BUCKLING MODE CONSTRAINTS 
      ARE DEFINED AS LOAD CASE 2
                              ONLY INITIAL STRESS EFFECTS ARE INCLUDED IN THE
                              STIFFNESS MATRIX

     THIS IS A LINEAR PERTURBATION STEP.
     ALL LOADS ARE DEFINED AS CHANGE IN LOAD TO THE REFERENCE STATE

     EXTRAPOLATION WILL NOT BE USED

     CHARACTERISTIC ELEMENT LENGTH     2.002E-02

     DETAILS REGARDING ACTUAL SOLUTION WAVEFRONT REQUESTED

     DETAILED OUTPUT OF DIAGNOSTICS TO DATABASE REQUESTED

     PRINT OF INCREMENT NUMBER, TIME, ETC., TO THE MESSAGE FILE EVERY     1  INCREMENTS

     ELEMENT OPERATIONS WILL NOT BE CARRIED OUT IN PARALLEL
 
     GPU SOLVER ACCELERATION ENABLED


  NUMBER OF EQUATIONS =    141929     NUMBER OF RHS =    1
  NUMBER OF FLOATING PT. OPERATIONS =  1.47E+10

  USING THE DIRECT SOLVER WITH   4 PROCESSORS

     CHECK POINT   START OF SOLVER    

     CHECK POINT  END OF SOLVER       

       ELAPSED USER TIME (SEC)      =   0.0000    
       ELAPSED SYSTEM TIME (SEC)    =  0.10000    
       ELAPSED TOTAL CPU TIME (SEC) =  0.10000    
       ELAPSED WALLCLOCK TIME (SEC) =          0
 
     ITERATION 1
      1       8.690701e+00     
      2       7.363977e+01     
      3       1.028886e+02     
      4       1.603053e+02     
      5       2.012410e+02     
      6       2.251471e+02     
      7       2.564046e+02     
      8       2.860100e+02     
      9       8.009035e+02     
      10      -1.117379e+03    
 
     NUMBER OF EIGENVALUES CONVERGED UPTO THIS ITERATION = 0
 
     ITERATION 2
      1       1.234308e+00     
      2       1.492154e+00     
      3       1.641799e+00     
      4       1.722261e+00     
      5       1.993341e+00     
      6       2.763951e+00     
      7       3.851952e+00     
      8       3.995258e+00     
      9       5.975985e+00     
      10      1.124663e+01     
 
     NUMBER OF EIGENVALUES CONVERGED UPTO THIS ITERATION = 0
 
     ITERATION 3
      1       1.078170e+00     
      2       1.333279e+00     
      3       1.437881e+00     
      4       1.530627e+00     
      5       1.671406e+00     
      6       1.813223e+00     
      7       2.063155e+00     
      8       2.373658e+00     
      9       3.303861e+00     
      10      4.669876e+00     
 
     NUMBER OF EIGENVALUES CONVERGED UPTO THIS ITERATION = 0
 
     ITERATION 4
      1       1.072838e+00     
      2       1.289370e+00     
      3       1.430831e+00     
      4       1.488135e+00     
      5       1.669988e+00     
      6       1.725639e+00     
      7       1.850630e+00     
      8       2.140016e+00     
      9       2.407121e+00     
      10      3.800362e+00     
 
     NUMBER OF EIGENVALUES CONVERGED UPTO THIS ITERATION = 0
 
     ITERATION 5
      1       1.072405e+00     
      2       1.267372e+00     
      3       1.429853e+00     
      4       1.473070e+00     
      5       1.669895e+00     
      6       1.693431e+00     
      7       1.811403e+00     
      8       1.862565e+00     
      9       2.277195e+00     
      10      3.356282e+00     
 
     NUMBER OF EIGENVALUES CONVERGED UPTO THIS ITERATION = 0
 
     ITERATION 6
      1       1.072343e+00     
      2       1.259940e+00     
      3       1.429440e+00     
      4       1.466561e+00     
      5       1.669884e+00     
      6       1.680215e+00     
      7       1.741564e+00     
      8       1.808799e+00     
      9       2.258887e+00     
      10      3.097735e+00     
 
     NUMBER OF EIGENVALUES CONVERGED UPTO THIS ITERATION = 0
 
     ITERATION 7
      1       1.072335e+00     
      2       1.258044e+00     
      3       1.429229e+00     
      4       1.463710e+00     
      5       1.669882e+00     
      6       1.675088e+00     
      7       1.699539e+00     
      8       1.806851e+00     
      9       2.253966e+00     
      10      2.934049e+00     
 
     NUMBER OF EIGENVALUES CONVERGED UPTO THIS ITERATION = 0
 
     ITERATION 8
      1       1.072334e+00     
      2       1.257610e+00     
      3       1.429138e+00     
      4       1.462518e+00     
      5       1.669881e+00     
      6       1.673202e+00     
      7       1.683190e+00     
      8       1.806422e+00     
      9       2.252009e+00     
      10      2.812850e+00     
 
     NUMBER OF EIGENVALUES CONVERGED UPTO THIS ITERATION = 2
 
     ITERATION 9
      1       1.072334e+00     
      2       1.257513e+00     
      3       1.429103e+00     
      4       1.462056e+00     
      5       1.669881e+00     
      6       1.672475e+00     
      7       1.676610e+00     
      8       1.806295e+00     
      9       2.250817e+00     
      10      2.710010e+00     
 
     NUMBER OF EIGENVALUES CONVERGED UPTO THIS ITERATION = 2
 
     ITERATION 10
      1       1.072334e+00     
      2       1.257492e+00     
      3       1.429091e+00     
      4       1.461890e+00     
      5       1.669880e+00     
      6       1.672003e+00     
      7       1.674098e+00     
      8       1.806249e+00     
      9       2.249828e+00     
      10      2.619085e+00     
 
     NUMBER OF EIGENVALUES CONVERGED UPTO THIS ITERATION = 2
 
     ITERATION 11
      1       1.072334e+00     
      2       1.257488e+00     
      3       1.429087e+00     
      4       1.461834e+00     
      5       1.669880e+00     
      6       1.671555e+00     
      7       1.673335e+00     
      8       1.806230e+00     
      9       2.248885e+00     
      10      2.541578e+00     
 
     NUMBER OF EIGENVALUES CONVERGED UPTO THIS ITERATION = 2
 
     ITERATION 12
      1       1.072334e+00     
      2       1.257487e+00     
      3       1.429086e+00     
      4       1.461816e+00     
      5       1.669880e+00     
      6       1.671284e+00     
      7       1.673129e+00     
      8       1.806222e+00     
      9       2.247955e+00     
      10      2.479922e+00     
 
     NUMBER OF EIGENVALUES CONVERGED UPTO THIS ITERATION = 4
 
     ITERATION 13
      1       1.072334e+00     
      2       1.257487e+00     
      3       1.429086e+00     
      4       1.461811e+00     
      5       1.669880e+00     
      6       1.671166e+00     
      7       1.673067e+00     
      8       1.806219e+00     
      9       2.247064e+00     
      10      2.434239e+00     
 
     NUMBER OF EIGENVALUES CONVERGED UPTO THIS ITERATION = 4
 
     ITERATION 14
      1       1.072334e+00     
      2       1.257487e+00     
      3       1.429085e+00     
      4       1.461809e+00     
      5       1.669880e+00     
      6       1.671121e+00     
      7       1.673048e+00     
      8       1.806218e+00     
      9       2.246266e+00     
      10      2.402331e+00     
 
     NUMBER OF EIGENVALUES CONVERGED UPTO THIS ITERATION = 5


          THE ANALYSIS HAS BEEN COMPLETED



     ANALYSIS SUMMARY:
     TOTAL OF          1  INCREMENTS
                       0  CUTBACKS IN AUTOMATIC INCREMENTATION
                       1  ITERATIONS INCLUDING CONTACT ITERATIONS IF PRESENT
                       1  PASSES THROUGH THE EQUATION SOLVER OF WHICH 
                       1  INVOLVE MATRIX DECOMPOSITION, INCLUDING
                       0  DECOMPOSITION(S) OF THE MASS MATRIX
                       1  REORDERING OF EQUATIONS TO MINIMIZE WAVEFRONT
                       0  ADDITIONAL RESIDUAL EVALUATIONS FOR LINE SEARCHES
                       0  ADDITIONAL OPERATOR EVALUATIONS FOR LINE SEARCHES
                       1  WARNING MESSAGES DURING USER INPUT PROCESSING
                       0  WARNING MESSAGES DURING ANALYSIS
                       0  ANALYSIS WARNINGS ARE NUMERICAL PROBLEM MESSAGES
                       0  ANALYSIS WARNINGS ARE NEGATIVE EIGENVALUE MESSAGES
                       0  ERROR MESSAGES



     JOB TIME SUMMARY
       USER TIME (SEC)      =   10.300    
       SYSTEM TIME (SEC)    =   1.7000    
       TOTAL CPU TIME (SEC) =   12.000    
       WALLCLOCK TIME (SEC) =         16
