1

   Abaqus 2020                                  Date 09-Sep-2025   Time 15:28:33
   For use by UNIVERSITY OF BRITISH COLUMBIA under license from Dassault Systemes or its subsidiary.

                                                                                 
                                                                                 
 STEP    1     INCREMENT     1     STEP TIME    0.00    


                        S T E P       1     C A L C U L A T I O N   O F   E I G E N V A L U E S

                                            F O R   B U C K L I N G   P R E D I C T I O N



                                                                                          

     THE SUBSPACE ITERATION METHOD IS USED FOR THIS ANALYSIS
     NUMBER OF EIGENVALUES                      5
     MAXIMUM NUMBER OF ITERATIONS                    300
     NUMBER OF VECTORS IN ITERATION                   10
     THE BUCKLING MODE CONSTRAINTS 
      ARE DEFINED AS LOAD CASE 2
                              ONLY INITIAL STRESS EFFECTS ARE INCLUDED IN THE
                              STIFFNESS MATRIX

     THIS IS A LINEAR PERTURBATION STEP.
     ALL LOADS ARE DEFINED AS CHANGE IN LOAD TO THE REFERENCE STATE

     EXTRAPOLATION WILL NOT BE USED

     CHARACTERISTIC ELEMENT LENGTH     2.026E-02

     DETAILS REGARDING ACTUAL SOLUTION WAVEFRONT REQUESTED

     DETAILED OUTPUT OF DIAGNOSTICS TO DATABASE REQUESTED

     PRINT OF INCREMENT NUMBER, TIME, ETC., TO THE MESSAGE FILE EVERY     1  INCREMENTS

     ELEMENT OPERATIONS WILL NOT BE CARRIED OUT IN PARALLEL
 
     GPU SOLVER ACCELERATION ENABLED


  NUMBER OF EQUATIONS =    172691     NUMBER OF RHS =    1
  NUMBER OF FLOATING PT. OPERATIONS =  1.87E+10

  USING THE DIRECT SOLVER WITH   4 PROCESSORS

     CHECK POINT   START OF SOLVER    

     CHECK POINT  END OF SOLVER       

       ELAPSED USER TIME (SEC)      =  0.10000    
       ELAPSED SYSTEM TIME (SEC)    =   0.0000    
       ELAPSED TOTAL CPU TIME (SEC) =  0.10000    
       ELAPSED WALLCLOCK TIME (SEC) =          1
 
     ITERATION 1
      1       1.769067e+02     
      2       2.520882e+02     
      3       2.854599e+02     
      4       2.987386e+02     
      5       3.232217e+02     
      6       3.260895e+02     
      7       3.282658e+02     
      8       3.519349e+02     
      9       3.555537e+02     
      10      3.953938e+02     
 
     NUMBER OF EIGENVALUES CONVERGED UPTO THIS ITERATION = 0
 
     ITERATION 2
      1       1.150420e+01     
      2       1.567203e+01     
      3       1.671588e+01     
      4       1.827720e+01     
      5       1.948186e+01     
      6       2.129653e+01     
      7       2.178036e+01     
      8       2.232518e+01     
      9       2.485171e+01     
      10      3.010882e+01     
 
     NUMBER OF EIGENVALUES CONVERGED UPTO THIS ITERATION = 0
 
     ITERATION 3
      1       1.056761e+01     
      2       1.079950e+01     
      3       1.126523e+01     
      4       1.181722e+01     
      5       1.187595e+01     
      6       1.207559e+01     
      7       1.297218e+01     
      8       1.444665e+01     
      9       1.480395e+01     
      10      1.512792e+01     
 
     NUMBER OF EIGENVALUES CONVERGED UPTO THIS ITERATION = 0
 
     ITERATION 4
      1       9.689002e+00     
      2       1.000466e+01     
      3       1.028436e+01     
      4       1.055945e+01     
      5       1.080880e+01     
      6       1.107805e+01     
      7       1.143116e+01     
      8       1.231744e+01     
      9       1.267648e+01     
      10      1.418380e+01     
 
     NUMBER OF EIGENVALUES CONVERGED UPTO THIS ITERATION = 0
 
     ITERATION 5
      1       9.344480e+00     
      2       9.573745e+00     
      3       9.826923e+00     
      4       1.021217e+01     
      5       1.050947e+01     
      6       1.071467e+01     
      7       1.098411e+01     
      8       1.148371e+01     
      9       1.165832e+01     
      10      1.368397e+01     
 
     NUMBER OF EIGENVALUES CONVERGED UPTO THIS ITERATION = 0
 
     ITERATION 6
      1       9.200630e+00     
      2       9.357662e+00     
      3       9.603008e+00     
      4       9.942759e+00     
      5       1.041066e+01     
      6       1.056714e+01     
      7       1.071679e+01     
      8       1.094268e+01     
      9       1.127699e+01     
      10      1.309185e+01     
 
     NUMBER OF EIGENVALUES CONVERGED UPTO THIS ITERATION = 0
 
     ITERATION 7
      1       9.130579e+00     
      2       9.240014e+00     
      3       9.469004e+00     
      4       9.791160e+00     
      5       1.030974e+01     
      6       1.044406e+01     
      7       1.055736e+01     
      8       1.071725e+01     
      9       1.098608e+01     
      10      1.235646e+01     
 
     NUMBER OF EIGENVALUES CONVERGED UPTO THIS ITERATION = 0
 
     ITERATION 8
      1       9.089452e+00     
      2       9.173441e+00     
      3       9.374567e+00     
      4       9.697976e+00     
      5       1.021909e+01     
      6       1.027182e+01     
      7       1.051717e+01     
      8       1.059494e+01     
      9       1.074597e+01     
      10      1.156737e+01     
 
     NUMBER OF EIGENVALUES CONVERGED UPTO THIS ITERATION = 0
 
     ITERATION 9
      1       9.059757e+00     
      2       9.134402e+00     
      3       9.301342e+00     
      4       9.634674e+00     
      5       1.010333e+01     
      6       1.014022e+01     
      7       1.042670e+01     
      8       1.053001e+01     
      9       1.056548e+01     
      10      1.092563e+01     
 
     NUMBER OF EIGENVALUES CONVERGED UPTO THIS ITERATION = 0
 
     ITERATION 10
      1       9.034514e+00     
      2       9.109642e+00     
      3       9.242233e+00     
      4       9.586041e+00     
      5       9.922559e+00     
      6       1.002444e+01     
      7       1.021920e+01     
      8       1.046538e+01     
      9       1.051377e+01     
      10      1.061875e+01     
 
     NUMBER OF EIGENVALUES CONVERGED UPTO THIS ITERATION = 0
 
     ITERATION 11
      1       9.010617e+00     
      2       9.091158e+00     
      3       9.195472e+00     
      4       9.536279e+00     
      5       9.699710e+00     
      6       9.919985e+00     
      7       1.008895e+01     
      8       1.040054e+01     
      9       1.049481e+01     
      10      1.052269e+01     
 
     NUMBER OF EIGENVALUES CONVERGED UPTO THIS ITERATION = 0
 
     ITERATION 12
      1       8.987227e+00     
      2       9.074347e+00     
      3       9.161779e+00     
      4       9.448037e+00     
      5       9.579461e+00     
      6       9.841294e+00     
      7       1.000641e+01     
      8       1.035539e+01     
      9       1.045351e+01     
      10      1.050738e+01     
 
     NUMBER OF EIGENVALUES CONVERGED UPTO THIS ITERATION = 0
 
     ITERATION 13
      1       8.965707e+00     
      2       9.057634e+00     
      3       9.140379e+00     
      4       9.349467e+00     
      5       9.540001e+00     
      6       9.782808e+00     
      7       9.941358e+00     
      8       1.032378e+01     
      9       1.042336e+01     
      10      1.050229e+01     
 
     NUMBER OF EIGENVALUES CONVERGED UPTO THIS ITERATION = 0
 
     ITERATION 14
      1       8.947993e+00     
      2       9.041457e+00     
      3       9.127662e+00     
      4       9.278318e+00     
      5       9.518732e+00     
      6       9.739179e+00     
      7       9.887992e+00     
      8       1.030022e+01     
      9       1.040280e+01     
      10      1.049868e+01     
 
     NUMBER OF EIGENVALUES CONVERGED UPTO THIS ITERATION = 0
 
     ITERATION 15
      1       8.934742e+00     
      2       9.026306e+00     
      3       9.119935e+00     
      4       9.228482e+00     
      5       9.503924e+00     
      6       9.706176e+00     
      7       9.844191e+00     
      8       1.028143e+01     
      9       1.038841e+01     
      10      1.049566e+01     
 
     NUMBER OF EIGENVALUES CONVERGED UPTO THIS ITERATION = 0
 
     ITERATION 16
      1       8.925382e+00     
      2       9.012203e+00     
      3       9.114905e+00     
      4       9.192631e+00     
      5       9.492841e+00     
      6       9.680738e+00     
      7       9.808407e+00     
      8       1.026565e+01     
      9       1.037807e+01     
      10      1.049296e+01     
 
     NUMBER OF EIGENVALUES CONVERGED UPTO THIS ITERATION = 0
 
     ITERATION 17
      1       8.918934e+00     
      2       8.999057e+00     
      3       9.111329e+00     
      4       9.166332e+00     
      5       9.484327e+00     
      6       9.660761e+00     
      7       9.779240e+00     
      8       1.025191e+01     
      9       1.037045e+01     
      10      1.049041e+01     
 
     NUMBER OF EIGENVALUES CONVERGED UPTO THIS ITERATION = 0
 
     ITERATION 18
      1       8.914507e+00     
      2       8.986854e+00     
      3       9.108486e+00     
      4       9.146962e+00     
      5       9.477709e+00     
      6       9.644814e+00     
      7       9.755420e+00     
      8       1.023966e+01     
      9       1.036469e+01     
      10      1.048794e+01     
 
     NUMBER OF EIGENVALUES CONVERGED UPTO THIS ITERATION = 0
 
     ITERATION 19
      1       8.911430e+00     
      2       8.975657e+00     
      3       9.105864e+00     
      4       9.132908e+00     
      5       9.472533e+00     
      6       9.631915e+00     
      7       9.735844e+00     
      8       1.022855e+01     
      9       1.036021e+01     
      10      1.048549e+01     
 
     NUMBER OF EIGENVALUES CONVERGED UPTO THIS ITERATION = 0
 
     ITERATION 20
      1       8.909240e+00     
      2       8.965554e+00     
      3       9.103008e+00     
      4       9.123166e+00     
      5       9.468465e+00     
      6       9.621377e+00     
      7       9.719592e+00     
      8       1.021834e+01     
      9       1.035664e+01     
      10      1.048300e+01     
 
     NUMBER OF EIGENVALUES CONVERGED UPTO THIS ITERATION = 0
 
     ITERATION 21
      1       8.907623e+00     
      2       8.956605e+00     
      3       9.099645e+00     
      4       9.116963e+00     
      5       9.465256e+00     
      6       9.612703e+00     
      7       9.705927e+00     
      8       1.020885e+01     
      9       1.035373e+01     
      10      1.048044e+01     
 
     NUMBER OF EIGENVALUES CONVERGED UPTO THIS ITERATION = 0
 
     ITERATION 22
      1       8.906371e+00     
      2       8.948823e+00     
      3       9.095984e+00     
      4       9.113324e+00     
      5       9.462715e+00     
      6       9.605521e+00     
      7       9.694272e+00     
      8       1.019995e+01     
      9       1.035130e+01     
      10      1.047778e+01     
 
     NUMBER OF EIGENVALUES CONVERGED UPTO THIS ITERATION = 0
 
     ITERATION 23
      1       8.905343e+00     
      2       8.942176e+00     
      3       9.092512e+00     
      4       9.111198e+00     
      5       9.460697e+00     
      6       9.599549e+00     
      7       9.684184e+00     
      8       1.019153e+01     
      9       1.034923e+01     
      10      1.047500e+01     
 
     NUMBER OF EIGENVALUES CONVERGED UPTO THIS ITERATION = 0
 
     ITERATION 24
      1       8.904447e+00     
      2       8.936594e+00     
      3       9.089517e+00     
      4       9.109880e+00     
      5       9.459087e+00     
      6       9.594565e+00     
      7       9.675329e+00     
      8       1.018352e+01     
      9       1.034744e+01     
      10      1.047208e+01     
 
     NUMBER OF EIGENVALUES CONVERGED UPTO THIS ITERATION = 0
 
     ITERATION 25
      1       8.903620e+00     
      2       8.931982e+00     
      3       9.087053e+00     
      4       9.109006e+00     
      5       9.457797e+00     
      6       9.590392e+00     
      7       9.667452e+00     
      8       1.017585e+01     
      9       1.034587e+01     
      10      1.046900e+01     
 
     NUMBER OF EIGENVALUES CONVERGED UPTO THIS ITERATION = 0
 
     ITERATION 26
      1       8.902830e+00     
      2       8.928232e+00     
      3       9.085068e+00     
      4       9.108396e+00     
      5       9.456759e+00     
      6       9.586889e+00     
      7       9.660365e+00     
      8       1.016845e+01     
      9       1.034446e+01     
      10      1.046574e+01     
 
     NUMBER OF EIGENVALUES CONVERGED UPTO THIS ITERATION = 0
 
     ITERATION 27
      1       8.902059e+00     
      2       8.925227e+00     
      3       9.083486e+00     
      4       9.107953e+00     
      5       9.455920e+00     
      6       9.583942e+00     
      7       9.653922e+00     
      8       1.016130e+01     
      9       1.034319e+01     
      10      1.046229e+01     
 
     NUMBER OF EIGENVALUES CONVERGED UPTO THIS ITERATION = 0
 
     ITERATION 28
      1       8.901309e+00     
      2       8.922851e+00     
      3       9.082229e+00     
      4       9.107625e+00     
      5       9.455239e+00     
      6       9.581456e+00     
      7       9.648016e+00     
      8       1.015433e+01     
      9       1.034202e+01     
      10      1.045863e+01     
 
     NUMBER OF EIGENVALUES CONVERGED UPTO THIS ITERATION = 0
 
     ITERATION 29
      1       8.900590e+00     
      2       8.920990e+00     
      3       9.081232e+00     
      4       9.107376e+00     
      5       9.454682e+00     
      6       9.579355e+00     
      7       9.642564e+00     
      8       1.014754e+01     
      9       1.034093e+01     
      10      1.045476e+01     
 
     NUMBER OF EIGENVALUES CONVERGED UPTO THIS ITERATION = 0
 
     ITERATION 30
      1       8.899913e+00     
      2       8.919543e+00     
      3       9.080441e+00     
      4       9.107185e+00     
      5       9.454225e+00     
      6       9.577576e+00     
      7       9.637504e+00     
      8       1.014088e+01     
      9       1.033989e+01     
      10      1.045067e+01     
 
     NUMBER OF EIGENVALUES CONVERGED UPTO THIS ITERATION = 0
 
     ITERATION 31
      1       8.899292e+00     
      2       8.918421e+00     
      3       9.079813e+00     
      4       9.107038e+00     
      5       9.453847e+00     
      6       9.576067e+00     
      7       9.632785e+00     
      8       1.013433e+01     
      9       1.033890e+01     
      10      1.044635e+01     
 
     NUMBER OF EIGENVALUES CONVERGED UPTO THIS ITERATION = 0
 
     ITERATION 32
      1       8.898735e+00     
      2       8.917552e+00     
      3       9.079313e+00     
      4       9.106924e+00     
      5       9.453532e+00     
      6       9.574785e+00     
      7       9.628370e+00     
      8       1.012787e+01     
      9       1.033794e+01     
      10      1.044181e+01     
 
     NUMBER OF EIGENVALUES CONVERGED UPTO THIS ITERATION = 0
 
     ITERATION 33
      1       8.898245e+00     
      2       8.916877e+00     
      3       9.078915e+00     
      4       9.106834e+00     
      5       9.453268e+00     
      6       9.573694e+00     
      7       9.624229e+00     
      8       1.012149e+01     
      9       1.033698e+01     
      10      1.043703e+01     
 
     NUMBER OF EIGENVALUES CONVERGED UPTO THIS ITERATION = 0
 
     ITERATION 34
      1       8.897821e+00     
      2       8.916351e+00     
      3       9.078597e+00     
      4       9.106764e+00     
      5       9.453046e+00     
      6       9.572764e+00     
      7       9.620338e+00     
      8       1.011516e+01     
      9       1.033602e+01     
      10      1.043204e+01     
 
     NUMBER OF EIGENVALUES CONVERGED UPTO THIS ITERATION = 0
 
     ITERATION 35
      1       8.897459e+00     
      2       8.915941e+00     
      3       9.078342e+00     
      4       9.106709e+00     
      5       9.452858e+00     
      6       9.571970e+00     
      7       9.616677e+00     
      8       1.010888e+01     
      9       1.033504e+01     
      10      1.042684e+01     
 
     NUMBER OF EIGENVALUES CONVERGED UPTO THIS ITERATION = 0
 
     ITERATION 36
      1       8.897154e+00     
      2       8.915619e+00     
      3       9.078138e+00     
      4       9.106666e+00     
      5       9.452696e+00     
      6       9.571292e+00     
      7       9.613230e+00     
      8       1.010264e+01     
      9       1.033403e+01     
      10      1.042144e+01     
 
     NUMBER OF EIGENVALUES CONVERGED UPTO THIS ITERATION = 0
 
     ITERATION 37
      1       8.896900e+00     
      2       8.915365e+00     
      3       9.077974e+00     
      4       9.106632e+00     
      5       9.452558e+00     
      6       9.570712e+00     
      7       9.609985e+00     
      8       1.009643e+01     
      9       1.033296e+01     
      10      1.041587e+01     
 
     NUMBER OF EIGENVALUES CONVERGED UPTO THIS ITERATION = 0
 
     ITERATION 38
      1       8.896690e+00     
      2       8.915165e+00     
      3       9.077843e+00     
      4       9.106605e+00     
      5       9.452438e+00     
      6       9.570214e+00     
      7       9.606928e+00     
      8       1.009023e+01     
      9       1.033181e+01     
      10      1.041016e+01     
 
     NUMBER OF EIGENVALUES CONVERGED UPTO THIS ITERATION = 0
 
     ITERATION 39
      1       8.896517e+00     
      2       8.915007e+00     
      3       9.077737e+00     
      4       9.106584e+00     
      5       9.452333e+00     
      6       9.569787e+00     
      7       9.604052e+00     
      8       1.008405e+01     
      9       1.033057e+01     
      10      1.040433e+01     
 
     NUMBER OF EIGENVALUES CONVERGED UPTO THIS ITERATION = 0
 
     ITERATION 40
      1       8.896376e+00     
      2       8.914882e+00     
      3       9.077651e+00     
      4       9.106567e+00     
      5       9.452242e+00     
      6       9.569419e+00     
      7       9.601346e+00     
      8       1.007789e+01     
      9       1.032918e+01     
      10      1.039844e+01     
 
     NUMBER OF EIGENVALUES CONVERGED UPTO THIS ITERATION = 0
 
     ITERATION 41
      1       8.896262e+00     
      2       8.914783e+00     
      3       9.077582e+00     
      4       9.106554e+00     
      5       9.452162e+00     
      6       9.569103e+00     
      7       9.598803e+00     
      8       1.007173e+01     
      9       1.032763e+01     
      10      1.039255e+01     
 
     NUMBER OF EIGENVALUES CONVERGED UPTO THIS ITERATION = 0
 
     ITERATION 42
      1       8.896169e+00     
      2       8.914704e+00     
      3       9.077526e+00     
      4       9.106544e+00     
      5       9.452091e+00     
      6       9.568830e+00     
      7       9.596416e+00     
      8       1.006558e+01     
      9       1.032585e+01     
      10      1.038672e+01     
 
     NUMBER OF EIGENVALUES CONVERGED UPTO THIS ITERATION = 0
 
     ITERATION 43
      1       8.896095e+00     
      2       8.914642e+00     
      3       9.077481e+00     
      4       9.106535e+00     
      5       9.452028e+00     
      6       9.568593e+00     
      7       9.594179e+00     
      8       1.005944e+01     
      9       1.032379e+01     
      10      1.038104e+01     
 
     NUMBER OF EIGENVALUES CONVERGED UPTO THIS ITERATION = 1
 
     ITERATION 44
      1       8.896035e+00     
      2       8.914592e+00     
      3       9.077445e+00     
      4       9.106529e+00     
      5       9.451972e+00     
      6       9.568388e+00     
      7       9.592085e+00     
      8       1.005332e+01     
      9       1.032138e+01     
      10      1.037558e+01     
 
     NUMBER OF EIGENVALUES CONVERGED UPTO THIS ITERATION = 1
 
     ITERATION 45
      1       8.895988e+00     
      2       8.914553e+00     
      3       9.077415e+00     
      4       9.106524e+00     
      5       9.451923e+00     
      6       9.568209e+00     
      7       9.590128e+00     
      8       1.004721e+01     
      9       1.031856e+01     
      10      1.037046e+01     
 
     NUMBER OF EIGENVALUES CONVERGED UPTO THIS ITERATION = 1
 
     ITERATION 46
      1       8.895950e+00     
      2       8.914522e+00     
      3       9.077391e+00     
      4       9.106520e+00     
      5       9.451879e+00     
      6       9.568053e+00     
      7       9.588304e+00     
      8       1.004113e+01     
      9       1.031527e+01     
      10      1.036576e+01     
 
     NUMBER OF EIGENVALUES CONVERGED UPTO THIS ITERATION = 1
 
     ITERATION 47
      1       8.895920e+00     
      2       8.914497e+00     
      3       9.077372e+00     
      4       9.106517e+00     
      5       9.451839e+00     
      6       9.567915e+00     
      7       9.586606e+00     
      8       1.003508e+01     
      9       1.031146e+01     
      10      1.036154e+01     
 
     NUMBER OF EIGENVALUES CONVERGED UPTO THIS ITERATION = 1
 
     ITERATION 48
      1       8.895896e+00     
      2       8.914478e+00     
      3       9.077356e+00     
      4       9.106514e+00     
      5       9.451804e+00     
      6       9.567794e+00     
      7       9.585029e+00     
      8       1.002906e+01     
      9       1.030714e+01     
      10      1.035784e+01     
 
     NUMBER OF EIGENVALUES CONVERGED UPTO THIS ITERATION = 1
 
     ITERATION 49
      1       8.895877e+00     
      2       8.914463e+00     
      3       9.077344e+00     
      4       9.106512e+00     
      5       9.451773e+00     
      6       9.567686e+00     
      7       9.583569e+00     
      8       1.002310e+01     
      9       1.030234e+01     
      10      1.035464e+01     
 
     NUMBER OF EIGENVALUES CONVERGED UPTO THIS ITERATION = 1
 
     ITERATION 50
      1       8.895863e+00     
      2       8.914451e+00     
      3       9.077334e+00     
      4       9.106511e+00     
      5       9.451745e+00     
      6       9.567590e+00     
      7       9.582220e+00     
      8       1.001720e+01     
      9       1.029714e+01     
      10      1.035192e+01     
 
     NUMBER OF EIGENVALUES CONVERGED UPTO THIS ITERATION = 1
 
     ITERATION 51
      1       8.895851e+00     
      2       8.914441e+00     
      3       9.077325e+00     
      4       9.106509e+00     
      5       9.451720e+00     
      6       9.567502e+00     
      7       9.580977e+00     
      8       1.001137e+01     
      9       1.029161e+01     
      10      1.034961e+01     
 
     NUMBER OF EIGENVALUES CONVERGED UPTO THIS ITERATION = 2
 
     ITERATION 52
      1       8.895842e+00     
      2       8.914434e+00     
      3       9.077319e+00     
      4       9.106508e+00     
      5       9.451697e+00     
      6       9.567423e+00     
      7       9.579835e+00     
      8       1.000563e+01     
      9       1.028584e+01     
      10      1.034765e+01     
 
     NUMBER OF EIGENVALUES CONVERGED UPTO THIS ITERATION = 3
 
     ITERATION 53
      1       8.895835e+00     
      2       8.914428e+00     
      3       9.077313e+00     
      4       9.106508e+00     
      5       9.451678e+00     
      6       9.567350e+00     
      7       9.578789e+00     
      8       9.999987e+00     
      9       1.027993e+01     
      10      1.034596e+01     
 
     NUMBER OF EIGENVALUES CONVERGED UPTO THIS ITERATION = 4
 
     ITERATION 54
      1       8.895830e+00     
      2       8.914423e+00     
      3       9.077309e+00     
      4       9.106507e+00     
      5       9.451660e+00     
      6       9.567282e+00     
      7       9.577834e+00     
      8       9.994458e+00     
      9       1.027395e+01     
      10      1.034450e+01     
 
     NUMBER OF EIGENVALUES CONVERGED UPTO THIS ITERATION = 4
 
     ITERATION 55
      1       8.895826e+00     
      2       8.914420e+00     
      3       9.077306e+00     
      4       9.106507e+00     
      5       9.451645e+00     
      6       9.567218e+00     
      7       9.576966e+00     
      8       9.989055e+00     
      9       1.026795e+01     
      10      1.034323e+01     
 
     NUMBER OF EIGENVALUES CONVERGED UPTO THIS ITERATION = 4
 
     ITERATION 56
      1       8.895822e+00     
      2       8.914417e+00     
      3       9.077303e+00     
      4       9.106506e+00     
      5       9.451631e+00     
      6       9.567158e+00     
      7       9.576178e+00     
      8       9.983791e+00     
      9       1.026200e+01     
      10      1.034210e+01     
 
     NUMBER OF EIGENVALUES CONVERGED UPTO THIS ITERATION = 4
 
     ITERATION 57
      1       8.895820e+00     
      2       8.914415e+00     
      3       9.077301e+00     
      4       9.106506e+00     
      5       9.451619e+00     
      6       9.567101e+00     
      7       9.575467e+00     
      8       9.978678e+00     
      9       1.025613e+01     
      10      1.034109e+01     
 
     NUMBER OF EIGENVALUES CONVERGED UPTO THIS ITERATION = 4
 
     ITERATION 58
      1       8.895818e+00     
      2       8.914413e+00     
      3       9.077299e+00     
      4       9.106506e+00     
      5       9.451608e+00     
      6       9.567046e+00     
      7       9.574827e+00     
      8       9.973728e+00     
      9       1.025037e+01     
      10      1.034017e+01     
 
     NUMBER OF EIGENVALUES CONVERGED UPTO THIS ITERATION = 4
 
     ITERATION 59
      1       8.895816e+00     
      2       8.914412e+00     
      3       9.077298e+00     
      4       9.106506e+00     
      5       9.451599e+00     
      6       9.566993e+00     
      7       9.574253e+00     
      8       9.968950e+00     
      9       1.024475e+01     
      10      1.033934e+01     
 
     NUMBER OF EIGENVALUES CONVERGED UPTO THIS ITERATION = 5


          THE ANALYSIS HAS BEEN COMPLETED



     ANALYSIS SUMMARY:
     TOTAL OF          1  INCREMENTS
                       0  CUTBACKS IN AUTOMATIC INCREMENTATION
                       1  ITERATIONS INCLUDING CONTACT ITERATIONS IF PRESENT
                       1  PASSES THROUGH THE EQUATION SOLVER OF WHICH 
                       1  INVOLVE MATRIX DECOMPOSITION, INCLUDING
                       0  DECOMPOSITION(S) OF THE MASS MATRIX
                       1  REORDERING OF EQUATIONS TO MINIMIZE WAVEFRONT
                       0  ADDITIONAL RESIDUAL EVALUATIONS FOR LINE SEARCHES
                       0  ADDITIONAL OPERATOR EVALUATIONS FOR LINE SEARCHES
                       1  WARNING MESSAGES DURING USER INPUT PROCESSING
                       0  WARNING MESSAGES DURING ANALYSIS
                       0  ANALYSIS WARNINGS ARE NUMERICAL PROBLEM MESSAGES
                       0  ANALYSIS WARNINGS ARE NEGATIVE EIGENVALUE MESSAGES
                       0  ERROR MESSAGES



     JOB TIME SUMMARY
       USER TIME (SEC)      =   80.100    
       SYSTEM TIME (SEC)    =   5.3000    
       TOTAL CPU TIME (SEC) =   85.400    
       WALLCLOCK TIME (SEC) =         78
