1

   Abaqus 2020                                  Date 09-Sep-2025   Time 14:39:06
   For use by UNIVERSITY OF BRITISH COLUMBIA under license from Dassault Systemes or its subsidiary.

                                                                                 
                                                                                 
 STEP    1     INCREMENT     1     STEP TIME    0.00    


                        S T E P       1     C A L C U L A T I O N   O F   E I G E N V A L U E S

                                            F O R   B U C K L I N G   P R E D I C T I O N



                                                                                          

     THE SUBSPACE ITERATION METHOD IS USED FOR THIS ANALYSIS
     NUMBER OF EIGENVALUES                      5
     MAXIMUM NUMBER OF ITERATIONS                    300
     NUMBER OF VECTORS IN ITERATION                   10
     THE BUCKLING MODE CONSTRAINTS 
      ARE DEFINED AS LOAD CASE 2
                              ONLY INITIAL STRESS EFFECTS ARE INCLUDED IN THE
                              STIFFNESS MATRIX

     THIS IS A LINEAR PERTURBATION STEP.
     ALL LOADS ARE DEFINED AS CHANGE IN LOAD TO THE REFERENCE STATE

     EXTRAPOLATION WILL NOT BE USED

     CHARACTERISTIC ELEMENT LENGTH     2.006E-02

     DETAILS REGARDING ACTUAL SOLUTION WAVEFRONT REQUESTED

     DETAILED OUTPUT OF DIAGNOSTICS TO DATABASE REQUESTED

     PRINT OF INCREMENT NUMBER, TIME, ETC., TO THE MESSAGE FILE EVERY     1  INCREMENTS

     ELEMENT OPERATIONS WILL NOT BE CARRIED OUT IN PARALLEL
 
     GPU SOLVER ACCELERATION ENABLED


  NUMBER OF EQUATIONS =    158195     NUMBER OF RHS =    1
  NUMBER OF FLOATING PT. OPERATIONS =  1.72E+10

  USING THE DIRECT SOLVER WITH   4 PROCESSORS

     CHECK POINT   START OF SOLVER    

     CHECK POINT  END OF SOLVER       

       ELAPSED USER TIME (SEC)      =  0.10000    
       ELAPSED SYSTEM TIME (SEC)    =   0.0000    
       ELAPSED TOTAL CPU TIME (SEC) =  0.10000    
       ELAPSED WALLCLOCK TIME (SEC) =          0
 
     ITERATION 1
      1       6.586233e+01     
      2       1.436295e+02     
      3       1.659978e+02     
      4       2.521117e+02     
      5       2.969467e+02     
      6       3.084293e+02     
      7       3.350743e+02     
      8       3.599951e+02     
      9       3.694794e+02     
      10      3.934168e+02     
 
     NUMBER OF EIGENVALUES CONVERGED UPTO THIS ITERATION = 0
 
     ITERATION 2
      1       5.363012e+00     
      2       8.218186e+00     
      3       1.264672e+01     
      4       1.277217e+01     
      5       1.359533e+01     
      6       1.479729e+01     
      7       1.657061e+01     
      8       1.673643e+01     
      9       1.756505e+01     
      10      1.943573e+01     
 
     NUMBER OF EIGENVALUES CONVERGED UPTO THIS ITERATION = 0
 
     ITERATION 3
      1       5.234748e+00     
      2       7.577159e+00     
      3       9.392043e+00     
      4       9.952976e+00     
      5       1.007373e+01     
      6       1.035314e+01     
      7       1.126786e+01     
      8       1.178406e+01     
      9       1.268323e+01     
      10      1.320024e+01     
 
     NUMBER OF EIGENVALUES CONVERGED UPTO THIS ITERATION = 0
 
     ITERATION 4
      1       5.223275e+00     
      2       7.492428e+00     
      3       8.664502e+00     
      4       8.979494e+00     
      5       9.089046e+00     
      6       9.336711e+00     
      7       9.984830e+00     
      8       1.076461e+01     
      9       1.111548e+01     
      10      1.157223e+01     
 
     NUMBER OF EIGENVALUES CONVERGED UPTO THIS ITERATION = 0
 
     ITERATION 5
      1       5.221177e+00     
      2       7.467912e+00     
      3       8.312486e+00     
      4       8.544737e+00     
      5       8.667230e+00     
      6       8.840995e+00     
      7       9.182216e+00     
      8       9.817196e+00     
      9       1.016549e+01     
      10      1.095466e+01     
 
     NUMBER OF EIGENVALUES CONVERGED UPTO THIS ITERATION = 0
 
     ITERATION 6
      1       5.220648e+00     
      2       7.458818e+00     
      3       8.094153e+00     
      4       8.172183e+00     
      5       8.452891e+00     
      6       8.603447e+00     
      7       8.805810e+00     
      8       9.151818e+00     
      9       9.660198e+00     
      10      1.053894e+01     
 
     NUMBER OF EIGENVALUES CONVERGED UPTO THIS ITERATION = 0
 
     ITERATION 7
      1       5.220487e+00     
      2       7.454980e+00     
      3       7.864853e+00     
      4       8.034276e+00     
      5       8.296959e+00     
      6       8.438814e+00     
      7       8.591680e+00     
      8       8.846861e+00     
      9       9.348227e+00     
      10      1.018266e+01     
 
     NUMBER OF EIGENVALUES CONVERGED UPTO THIS ITERATION = 0
 
     ITERATION 8
      1       5.220432e+00     
      2       7.453154e+00     
      3       7.721770e+00     
      4       7.939080e+00     
      5       8.177693e+00     
      6       8.315778e+00     
      7       8.461899e+00     
      8       8.735067e+00     
      9       9.133433e+00     
      10      9.884139e+00     
 
     NUMBER OF EIGENVALUES CONVERGED UPTO THIS ITERATION = 0
 
     ITERATION 9
      1       5.220412e+00     
      2       7.452173e+00     
      3       7.632915e+00     
      4       7.864298e+00     
      5       8.097762e+00     
      6       8.226788e+00     
      7       8.392984e+00     
      8       8.681032e+00     
      9       8.980212e+00     
      10      9.637150e+00     
 
     NUMBER OF EIGENVALUES CONVERGED UPTO THIS ITERATION = 0
 
     ITERATION 10
      1       5.220404e+00     
      2       7.451590e+00     
      3       7.575450e+00     
      4       7.809583e+00     
      5       8.048366e+00     
      6       8.161389e+00     
      7       8.351931e+00     
      8       8.646684e+00     
      9       8.868114e+00     
      10      9.431406e+00     
 
     NUMBER OF EIGENVALUES CONVERGED UPTO THIS ITERATION = 0
 
     ITERATION 11
      1       5.220401e+00     
      2       7.451217e+00     
      3       7.537669e+00     
      4       7.770793e+00     
      5       8.017042e+00     
      6       8.111737e+00     
      7       8.323403e+00     
      8       8.619434e+00     
      9       8.785717e+00     
      10      9.256930e+00     
 
     NUMBER OF EIGENVALUES CONVERGED UPTO THIS ITERATION = 1
 
     ITERATION 12
      1       5.220400e+00     
      2       7.450967e+00     
      3       7.512637e+00     
      4       7.742274e+00     
      5       7.996063e+00     
      6       8.072897e+00     
      7       8.300573e+00     
      8       8.592667e+00     
      9       8.727104e+00     
      10      9.106271e+00     
 
     NUMBER OF EIGENVALUES CONVERGED UPTO THIS ITERATION = 1
 
     ITERATION 13
      1       5.220399e+00     
      2       7.450795e+00     
      3       7.495845e+00     
      4       7.719741e+00     
      5       7.981094e+00     
      6       8.042031e+00     
      7       8.279658e+00     
      8       8.562911e+00     
      9       8.688215e+00     
      10      8.975321e+00     
 
     NUMBER OF EIGENVALUES CONVERGED UPTO THIS ITERATION = 1
 
     ITERATION 14
      1       5.220399e+00     
      2       7.450675e+00     
      3       7.484339e+00     
      4       7.700576e+00     
      5       7.969499e+00     
      6       8.017611e+00     
      7       8.258088e+00     
      8       8.530598e+00     
      9       8.663651e+00     
      10      8.863101e+00     
 
     NUMBER OF EIGENVALUES CONVERGED UPTO THIS ITERATION = 1
 
     ITERATION 15
      1       5.220399e+00     
      2       7.450592e+00     
      3       7.476218e+00     
      4       7.683370e+00     
      5       7.959446e+00     
      6       7.998886e+00     
      7       8.234037e+00     
      8       8.498320e+00     
      9       8.647405e+00     
      10      8.770642e+00     
 
     NUMBER OF EIGENVALUES CONVERGED UPTO THIS ITERATION = 1
 
     ITERATION 16
      1       5.220399e+00     
      2       7.450535e+00     
      3       7.470280e+00     
      4       7.667502e+00     
      5       7.949671e+00     
      6       7.985381e+00     
      7       8.206691e+00     
      8       8.468370e+00     
      9       8.634355e+00     
      10      8.699648e+00     
 
     NUMBER OF EIGENVALUES CONVERGED UPTO THIS ITERATION = 1
 
     ITERATION 17
      1       5.220399e+00     
      2       7.450495e+00     
      3       7.465784e+00     
      4       7.652848e+00     
      5       7.939748e+00     
      6       7.976284e+00     
      7       8.176749e+00     
      8       8.442346e+00     
      9       8.616689e+00     
      10      8.654370e+00     
 
     NUMBER OF EIGENVALUES CONVERGED UPTO THIS ITERATION = 1
 
     ITERATION 18
      1       5.220399e+00     
      2       7.450469e+00     
      3       7.462284e+00     
      4       7.639555e+00     
      5       7.930037e+00     
      6       7.970332e+00     
      7       8.146301e+00     
      8       8.421052e+00     
      9       8.588180e+00     
      10      8.636577e+00     
 
     NUMBER OF EIGENVALUES CONVERGED UPTO THIS ITERATION = 1
 
     ITERATION 19
      1       5.220399e+00     
      2       7.450451e+00     
      3       7.459520e+00     
      4       7.627856e+00     
      5       7.921037e+00     
      6       7.966376e+00     
      7       8.117776e+00     
      8       8.404360e+00     
      9       8.561361e+00     
      10      8.629253e+00     
 
     NUMBER OF EIGENVALUES CONVERGED UPTO THIS ITERATION = 1
 
     ITERATION 20
      1       5.220399e+00     
      2       7.450439e+00     
      3       7.457341e+00     
      4       7.617928e+00     
      5       7.913034e+00     
      6       7.963661e+00     
      7       8.092855e+00     
      8       8.391531e+00     
      9       8.540282e+00     
      10      8.624748e+00     
 
     NUMBER OF EIGENVALUES CONVERGED UPTO THIS ITERATION = 1
 
     ITERATION 21
      1       5.220399e+00     
      2       7.450431e+00     
      3       7.455647e+00     
      4       7.609806e+00     
      5       7.906135e+00     
      6       7.961747e+00     
      7       8.072166e+00     
      8       8.381689e+00     
      9       8.523986e+00     
      10      8.621477e+00     
 
     NUMBER OF EIGENVALUES CONVERGED UPTO THIS ITERATION = 1
 
     ITERATION 22
      1       5.220399e+00     
      2       7.450425e+00     
      3       7.454360e+00     
      4       7.603384e+00     
      5       7.900342e+00     
      6       7.960368e+00     
      7       8.055559e+00     
      8       8.374079e+00     
      9       8.511270e+00     
      10      8.618935e+00     
 
     NUMBER OF EIGENVALUES CONVERGED UPTO THIS ITERATION = 2
 
     ITERATION 23
      1       5.220399e+00     
      2       7.450422e+00     
      3       7.453408e+00     
      4       7.598451e+00     
      5       7.895590e+00     
      6       7.959362e+00     
      7       8.042499e+00     
      8       8.368129e+00     
      9       8.501216e+00     
      10      8.616889e+00     
 
     NUMBER OF EIGENVALUES CONVERGED UPTO THIS ITERATION = 2
 
     ITERATION 24
      1       5.220399e+00     
      2       7.450420e+00     
      3       7.452721e+00     
      4       7.594755e+00     
      5       7.891774e+00     
      6       7.958622e+00     
      7       8.032344e+00     
      8       8.363422e+00     
      9       8.493170e+00     
      10      8.615208e+00     
 
     NUMBER OF EIGENVALUES CONVERGED UPTO THIS ITERATION = 2
 
     ITERATION 25
      1       5.220399e+00     
      2       7.450418e+00     
      3       7.452236e+00     
      4       7.592039e+00     
      5       7.888769e+00     
      6       7.958075e+00     
      7       8.024494e+00     
      8       8.359662e+00     
      9       8.486661e+00     
      10      8.613808e+00     
 
     NUMBER OF EIGENVALUES CONVERGED UPTO THIS ITERATION = 2
 
     ITERATION 26
      1       5.220399e+00     
      2       7.450417e+00     
      3       7.451901e+00     
      4       7.590074e+00     
      5       7.886439e+00     
      6       7.957671e+00     
      7       8.018440e+00     
      8       8.356632e+00     
      9       8.481347e+00     
      10      8.612631e+00     
 
     NUMBER OF EIGENVALUES CONVERGED UPTO THIS ITERATION = 2
 
     ITERATION 27
      1       5.220399e+00     
      2       7.450417e+00     
      3       7.451673e+00     
      4       7.588670e+00     
      5       7.884658e+00     
      6       7.957371e+00     
      7       8.013774e+00     
      8       8.354175e+00     
      9       8.476976e+00     
      10      8.611633e+00     
 
     NUMBER OF EIGENVALUES CONVERGED UPTO THIS ITERATION = 2
 
     ITERATION 28
      1       5.220399e+00     
      2       7.450416e+00     
      3       7.451520e+00     
      4       7.587676e+00     
      5       7.883311e+00     
      6       7.957150e+00     
      7       8.010178e+00     
      8       8.352172e+00     
      9       8.473354e+00     
      10      8.610782e+00     
 
     NUMBER OF EIGENVALUES CONVERGED UPTO THIS ITERATION = 2
 
     ITERATION 29
      1       5.220399e+00     
      2       7.450416e+00     
      3       7.451418e+00     
      4       7.586978e+00     
      5       7.882302e+00     
      6       7.956986e+00     
      7       8.007403e+00     
      8       8.350533e+00     
      9       8.470335e+00     
      10      8.610053e+00     
 
     NUMBER OF EIGENVALUES CONVERGED UPTO THIS ITERATION = 2
 
     ITERATION 30
      1       5.220399e+00     
      2       7.450416e+00     
      3       7.451350e+00     
      4       7.586490e+00     
      5       7.881551e+00     
      6       7.956866e+00     
      7       8.005262e+00     
      8       8.349186e+00     
      9       8.467805e+00     
      10      8.609427e+00     
 
     NUMBER OF EIGENVALUES CONVERGED UPTO THIS ITERATION = 2
 
     ITERATION 31
      1       5.220399e+00     
      2       7.450415e+00     
      3       7.451306e+00     
      4       7.586150e+00     
      5       7.880996e+00     
      6       7.956778e+00     
      7       8.003607e+00     
      8       8.348078e+00     
      9       8.465676e+00     
      10      8.608886e+00     
 
     NUMBER OF EIGENVALUES CONVERGED UPTO THIS ITERATION = 2
 
     ITERATION 32
      1       5.220399e+00     
      2       7.450415e+00     
      3       7.451276e+00     
      4       7.585914e+00     
      5       7.880587e+00     
      6       7.956713e+00     
      7       8.002329e+00     
      8       8.347164e+00     
      9       8.463875e+00     
      10      8.608419e+00     
 
     NUMBER OF EIGENVALUES CONVERGED UPTO THIS ITERATION = 2
 
     ITERATION 33
      1       5.220399e+00     
      2       7.450415e+00     
      3       7.451257e+00     
      4       7.585751e+00     
      5       7.880287e+00     
      6       7.956665e+00     
      7       8.001340e+00     
      8       8.346409e+00     
      9       8.462346e+00     
      10      8.608013e+00     
 
     NUMBER OF EIGENVALUES CONVERGED UPTO THIS ITERATION = 2
 
     ITERATION 34
      1       5.220399e+00     
      2       7.450415e+00     
      3       7.451245e+00     
      4       7.585638e+00     
      5       7.880068e+00     
      6       7.956631e+00     
      7       8.000575e+00     
      8       8.345784e+00     
      9       8.461044e+00     
      10      8.607660e+00     
 
     NUMBER OF EIGENVALUES CONVERGED UPTO THIS ITERATION = 2
 
     ITERATION 35
      1       5.220399e+00     
      2       7.450415e+00     
      3       7.451236e+00     
      4       7.585560e+00     
      5       7.879907e+00     
      6       7.956605e+00     
      7       7.999982e+00     
      8       8.345267e+00     
      9       8.459931e+00     
      10      8.607352e+00     
 
     NUMBER OF EIGENVALUES CONVERGED UPTO THIS ITERATION = 2
 
     ITERATION 36
      1       5.220399e+00     
      2       7.450415e+00     
      3       7.451231e+00     
      4       7.585506e+00     
      5       7.879790e+00     
      6       7.956587e+00     
      7       7.999523e+00     
      8       8.344838e+00     
      9       8.458977e+00     
      10      8.607084e+00     
 
     NUMBER OF EIGENVALUES CONVERGED UPTO THIS ITERATION = 3
 
     ITERATION 37
      1       5.220399e+00     
      2       7.450415e+00     
      3       7.451227e+00     
      4       7.585469e+00     
      5       7.879705e+00     
      6       7.956574e+00     
      7       7.999167e+00     
      8       8.344482e+00     
      9       8.458156e+00     
      10      8.606848e+00     
 
     NUMBER OF EIGENVALUES CONVERGED UPTO THIS ITERATION = 3
 
     ITERATION 38
      1       5.220399e+00     
      2       7.450415e+00     
      3       7.451225e+00     
      4       7.585443e+00     
      5       7.879643e+00     
      6       7.956564e+00     
      7       7.998891e+00     
      8       8.344187e+00     
      9       8.457450e+00     
      10      8.606643e+00     
 
     NUMBER OF EIGENVALUES CONVERGED UPTO THIS ITERATION = 3
 
     ITERATION 39
      1       5.220399e+00     
      2       7.450415e+00     
      3       7.451224e+00     
      4       7.585426e+00     
      5       7.879597e+00     
      6       7.956557e+00     
      7       7.998677e+00     
      8       8.343941e+00     
      9       8.456839e+00     
      10      8.606462e+00     
 
     NUMBER OF EIGENVALUES CONVERGED UPTO THIS ITERATION = 3
 
     ITERATION 40
      1       5.220399e+00     
      2       7.450415e+00     
      3       7.451223e+00     
      4       7.585413e+00     
      5       7.879564e+00     
      6       7.956551e+00     
      7       7.998511e+00     
      8       8.343736e+00     
      9       8.456311e+00     
      10      8.606303e+00     
 
     NUMBER OF EIGENVALUES CONVERGED UPTO THIS ITERATION = 3
 
     ITERATION 41
      1       5.220399e+00     
      2       7.450415e+00     
      3       7.451222e+00     
      4       7.585405e+00     
      5       7.879540e+00     
      6       7.956547e+00     
      7       7.998381e+00     
      8       8.343566e+00     
      9       8.455853e+00     
      10      8.606163e+00     
 
     NUMBER OF EIGENVALUES CONVERGED UPTO THIS ITERATION = 3
 
     ITERATION 42
      1       5.220399e+00     
      2       7.450415e+00     
      3       7.451222e+00     
      4       7.585399e+00     
      5       7.879523e+00     
      6       7.956545e+00     
      7       7.998281e+00     
      8       8.343423e+00     
      9       8.455455e+00     
      10      8.606040e+00     
 
     NUMBER OF EIGENVALUES CONVERGED UPTO THIS ITERATION = 4
 
     ITERATION 43
      1       5.220399e+00     
      2       7.450415e+00     
      3       7.451221e+00     
      4       7.585395e+00     
      5       7.879510e+00     
      6       7.956543e+00     
      7       7.998202e+00     
      8       8.343304e+00     
      9       8.455109e+00     
      10      8.605931e+00     
 
     NUMBER OF EIGENVALUES CONVERGED UPTO THIS ITERATION = 4
 
     ITERATION 44
      1       5.220399e+00     
      2       7.450415e+00     
      3       7.451221e+00     
      4       7.585392e+00     
      5       7.879500e+00     
      6       7.956541e+00     
      7       7.998141e+00     
      8       8.343205e+00     
      9       8.454807e+00     
      10      8.605835e+00     
 
     NUMBER OF EIGENVALUES CONVERGED UPTO THIS ITERATION = 4
 
     ITERATION 45
      1       5.220399e+00     
      2       7.450415e+00     
      3       7.451221e+00     
      4       7.585390e+00     
      5       7.879494e+00     
      6       7.956540e+00     
      7       7.998094e+00     
      8       8.343122e+00     
      9       8.454544e+00     
      10      8.605750e+00     
 
     NUMBER OF EIGENVALUES CONVERGED UPTO THIS ITERATION = 5


          THE ANALYSIS HAS BEEN COMPLETED



     ANALYSIS SUMMARY:
     TOTAL OF          1  INCREMENTS
                       0  CUTBACKS IN AUTOMATIC INCREMENTATION
                       1  ITERATIONS INCLUDING CONTACT ITERATIONS IF PRESENT
                       1  PASSES THROUGH THE EQUATION SOLVER OF WHICH 
                       1  INVOLVE MATRIX DECOMPOSITION, INCLUDING
                       0  DECOMPOSITION(S) OF THE MASS MATRIX
                       1  REORDERING OF EQUATIONS TO MINIMIZE WAVEFRONT
                       0  ADDITIONAL RESIDUAL EVALUATIONS FOR LINE SEARCHES
                       0  ADDITIONAL OPERATOR EVALUATIONS FOR LINE SEARCHES
                       1  WARNING MESSAGES DURING USER INPUT PROCESSING
                       0  WARNING MESSAGES DURING ANALYSIS
                       0  ANALYSIS WARNINGS ARE NUMERICAL PROBLEM MESSAGES
                       0  ANALYSIS WARNINGS ARE NEGATIVE EIGENVALUE MESSAGES
                       0  ERROR MESSAGES



     JOB TIME SUMMARY
       USER TIME (SEC)      =   67.800    
       SYSTEM TIME (SEC)    =   5.3000    
       TOTAL CPU TIME (SEC) =   73.100    
       WALLCLOCK TIME (SEC) =         59
