 Abaqus/Standard 2020                  DATE 09-Sep-2025 TIME 14:53:05
 SUMMARY OF JOB INFORMATION:
 STEP  INC ATT SEVERE EQUIL TOTAL  TOTAL      STEP       INC OF       DOF    IF
               DISCON ITERS ITERS  TIME/    TIME/LPF    TIME/LPF    MONITOR RIKS
               ITERS               FREQ
   1     1   1     0     2     2             0.000333   0.0003333             R
   1     2   1     0     2     2             0.000667   0.0003333             R
   1     3   1     0     2     2             0.00117    0.0005000             R
   1     4   1     0     2     2             0.00192    0.0007500             R
   1     5   1     0     2     2             0.00304    0.001125              R
   1     6   1     0     2     2             0.00473    0.001687              R
   1     7   1     0     2     2             0.00726    0.002531              R
   1     8   1     0     2     2             0.0111     0.003796              R
   1     9   1     0     2     2             0.0167     0.005692              R
   1    10   1     0     2     2             0.0253     0.008537              R
   1    11   1     0     2     2             0.0381     0.01280               R
   1    12   1     0     2     2             0.0573     0.01919               R
   1    13   1     0     2     2             0.0860     0.02876               R
   1    14   1     0     2     2             0.129      0.04308               R
   1    15   1     0     2     2             0.194      0.06447               R
   1    16   1     0     2     2             0.290      0.09638               R
   1    17   1     0     2     2             0.434      0.1438                R
   1    18   1     0     3     3             0.647      0.2135                R
   1    19   1     0     3     3             0.962      0.3146                R
   1    20   1     0     3     3             1.42       0.4548                R
   1    21   1     0     3     3             2.04       0.6269                R
   1    22   1     0     4     4             2.81       0.7627                R
   1    23   1     0     4     4             3.54       0.7298                R
   1    24   1     0     4     4             4.10       0.5657                R
   1    25   1     0     3     3             4.52       0.4155                R
   1    26   1     0     3     3             4.84       0.3211                R
   1    27   1     0     3     3             5.12       0.2853                R
   1    28   1     0     4     4             5.44       0.3127                R
   1    29   1     0     4     4             5.85       0.4148                R
   1    30   1     0     6     6             6.42       0.5656                R
   1    31   1U    0     4     4             6.42       0.5054                R
   1    31   2     0     3     3             6.54       0.1258                R
   1    32   1     0     3     3             6.66       0.1216                R
   1    33   1     0     4     4             6.83       0.1707                R
   1    34   1     0     4     4             7.07       0.2321                R
   1    35   1     0     4     4             7.38       0.3128                R
   1    36   1     0     5     5             7.86       0.4755                R
   1    37   1     0     4     4             8.36       0.5083                R
   1    38   1     0     4     4             8.90       0.5334                R
   1    39   1     0     4     4             9.73       0.8303                R
   1    40   1     0     5     5             11.0       1.250                 R
   1    41   1     0     7     7             12.2       1.183                 R
   1    42   1U    0     5     5             12.2       0.6531                R
   1    42   2     0     3     3             12.4       0.2801                R
   1    43   1     0     3     3             12.7       0.2694                R
   1    44   1     0     4     4             13.1       0.3791                R
   1    45   1     0     5     5             13.6       0.4945                R
   1    46   1U    0     5     5             13.6       0.3923                R
   1    46   2U    0     4     4             13.6       0.09873               R
   1    46   3     0     3     3             13.6       0.006844              R
   1    47   1     0     3     3             13.6       0.006811              R
   1    48   1     0     3     3             13.6       0.01016               R
   1    49   1     0     3     3             13.6       0.01509               R
   1    50   1     0     3     3             13.6       0.02228               R
                          
 THE ANALYSIS HAS COMPLETED SUCCESSFULLY
