*Heading
** Job name: riks-multiweb Model name: riks-multiweb
** Generated by: Abaqus/CAE 2020
*Preprint, echo=NO, model=NO, history=NO, contact=NO
**
** PARTS
**
*Part, name=panel
*Node
      1,  0.899999976,           0.,           3.
      2,  0.899999976,           0.,           0.
      3,          1.5,           0.,           0.
      4,          1.5,           0.,           3.
      5,  0.300000012,           0.,           3.
      6,  0.300000012,           0.,           0.
      7, -0.899999976,           0.,           0.
      8, -0.899999976,           0.,           3.
      9,         -1.5,           0.,           3.
     10,         -1.5,           0.,           0.
     11, -0.300000012,           0.,           3.
     12, -0.300000012,           0.,           0.
     13, -0.899999976,        0.125,           3.
     14, -0.899999976,        0.125,           0.
     15,  0.300000012,        0.125,           3.
     16,  0.300000012,        0.125,           0.
     17,  0.899999976,        0.125,           3.
     18,  0.899999976,        0.125,           0.
     19, -0.300000012,        0.125,           3.
     20, -0.300000012,        0.125,           0.
** ... 26405 like lines cut
*Element, type=S4R
   1,    1,   21, 1841,  376
   2,   21,   22, 1842, 1841
   3,   22,   23, 1843, 1842
   4,   23,   24, 1844, 1843
   5,   24,   25, 1845, 1844
   6,   25,   26, 1846, 1845
   7,   26,   27, 1847, 1846
   8,   27,   28, 1848, 1847
   9,   28,   29, 1849, 1848
  10,   29,   30, 1850, 1849
  11,   30,   31, 1851, 1850
  12,   31,   32, 1852, 1851
  13,   32,   33, 1853, 1852
  14,   33,   34, 1854, 1853
  15,   34,   35, 1855, 1854
  16,   35,   36, 1856, 1855
  17,   36,   37, 1857, 1856
  18,   37,   38, 1858, 1857
  19,   38,   39, 1859, 1858
  20,   39,   40, 1860, 1859
** ... 26080 like lines cut
*Elset, elset=_PickedSet2, internal, generate
     1,  22500,      1
*Elset, elset=_PickedSet3, internal, generate
 22501,  26100,      1
*Elset, elset=_PickedSet4, internal
 22504, 22505, 22506, 22510, 22511, 22512, 22516, 22517, 22518, 23386, 23387, 23388, 23392, 23393, 23394, 23398
 23399, 23400, 23404, 23405, 23406, 23410, 23411, 23412, 23416, 23417, 23418, 24286, 24287, 24288, 24292, 24293
 24294, 24298, 24299, 24300, 24304, 24305, 24306, 24310, 24311, 24312, 24316, 24317, 24318, 25186, 25187, 25188
 25192, 25193, 25194, 25198, 25199, 25200, 25204, 25205, 25206, 25210, 25211, 25212, 25216, 25217, 25218, 26086
 26087, 26088, 26092, 26093, 26094, 26098, 26099, 26100
** Section: plate
*Shell Section, elset=_PickedSet2, material=M1
0.01, 5
** Region: (web:Picked)
*Elset, elset=_I2, internal
 22501, 22502, 22503, 22507, 22508, 22509, 22513, 22514, 22515, 22519, 22520, 22521, 22522, 22523, 22524, 22525
 22526, 22527, 22528, 22529, 22530, 22531, 22532, 22533, 22534, 22535, 22536, 22537, 22538, 22539, 22540, 22541
 22542, 22543, 22544, 22545, 22546, 22547, 22548, 22549, 22550, 22551, 22552, 22553, 22554, 22555, 22556, 22557
 22558, 22559, 22560, 22561, 22562, 22563, 22564, 22565, 22566, 22567, 22568, 22569, 22570, 22571, 22572, 22573
 22574, 22575, 22576, 22577, 22578, 22579, 22580, 22581, 22582, 22583, 22584, 22585, 22586, 22587, 22588, 22589
 22590, 22591, 22592, 22593, 22594, 22595, 22596, 22597, 22598, 22599, 22600, 22601, 22602, 22603, 22604, 22605
 22606, 22607, 22608, 22609, 22610, 22611, 22612, 22613, 22614, 22615, 22616, 22617, 22618, 22619, 22620, 22621
 22622, 22623, 22624, 22625, 22626, 22627, 22628, 22629, 22630, 22631, 22632, 22633, 22634, 22635, 22636, 22637
 22638, 22639, 22640, 22641, 22642, 22643, 22644, 22645, 22646, 22647, 22648, 22649, 22650, 22651, 22652, 22653
 22654, 22655, 22656, 22657, 22658, 22659, 22660, 22661, 22662, 22663, 22664, 22665, 22666, 22667, 22668, 22669
 22670, 22671, 22672, 22673, 22674, 22675, 22676, 22677, 22678, 22679, 22680, 22681, 22682, 22683, 22684, 22685
 22686, 22687, 22688, 22689, 22690, 22691, 22692, 22693, 22694, 22695, 22696, 22697, 22698, 22699, 22700, 22701
 22702, 22703, 22704, 22705, 22706, 22707, 22708, 22709, 22710, 22711, 22712, 22713, 22714, 22715, 22716, 22717
 22718, 22719, 22720, 22721, 22722, 22723, 22724, 22725, 22726, 22727, 22728, 22729, 22730, 22731, 22732, 22733
 22734, 22735, 22736, 22737, 22738, 22739, 22740, 22741, 22742, 22743, 22744, 22745, 22746, 22747, 22748, 22749
 22750, 22751, 22752, 22753, 22754, 22755, 22756, 22757, 22758, 22759, 22760, 22761, 22762, 22763, 22764, 22765
 22766, 22767, 22768, 22769, 22770, 22771, 22772, 22773, 22774, 22775, 22776, 22777, 22778, 22779, 22780, 22781
 22782, 22783, 22784, 22785, 22786, 22787, 22788, 22789, 22790, 22791, 22792, 22793, 22794, 22795, 22796, 22797
 22798, 22799, 22800, 22801, 22802, 22803, 22804, 22805, 22806, 22807, 22808, 22809, 22810, 22811, 22812, 22813
 22814, 22815, 22816, 22817, 22818, 22819, 22820, 22821, 22822, 22823, 22824, 22825, 22826, 22827, 22828, 22829
** ... 201 like lines cut
** Section: web
*Shell Section, elset=_I2, material=M1
0.0078, 5
** Section: local-thickness
*Shell Section, elset=_PickedSet4, material=M1
0.078, 5
*End Part
**  
**
** ASSEMBLY
**
*Assembly, name=Assembly
**  
*Instance, name=panel-1, part=panel
        -1.5,           0.,           0.
        -1.5,           0.,           0., -0.922649730810374, 0.577350269189626, 0.577350269189626,         120.
*End Instance
**  
*Nset, nset=Edge-Follower, instance=panel-1
    2,    6,    7,   10,   12,  170,  171,  172,  173,  174,  175,  176,  177,  178,  179,  180
  181,  182,  183,  184,  185,  186,  187,  188,  189,  190,  191,  192,  193,  194,  195,  196
  197,  198,  555,  556,  557,  558,  559,  560,  561,  562,  563,  564,  565,  566,  567,  568
  569,  570,  571,  572,  573,  574,  575,  576,  577,  578,  579,  580,  581,  582,  583,  911
  912,  913,  914,  915,  916,  917,  918,  919,  920,  921,  922,  923,  924,  925,  926,  927
  928,  929,  930,  931,  932,  933,  934,  935,  936,  937,  938,  939, 1089, 1090, 1091, 1092
 1093, 1094, 1095, 1096, 1097, 1098, 1099, 1100, 1101, 1102, 1103, 1104, 1105, 1106, 1107, 1108
 1109, 1110, 1111, 1112, 1113, 1114, 1115, 1116, 1117, 1176, 1177, 1178, 1179, 1180, 1181, 1182
 1183, 1184, 1185, 1186, 1187, 1188, 1189, 1190, 1191, 1192, 1193, 1194, 1195, 1196, 1197, 1198
 1199, 1200, 1201, 1202, 1203, 1204
*Nset, nset=Edge-Main, instance=panel-1
 3,
*Nset, nset=Fixed-Follower, instance=panel-1
    1,    5,    8,    9,   11,  348,  349,  350,  351,  352,  353,  354,  355,  356,  357,  358
  359,  360,  361,  362,  363,  364,  365,  366,  367,  368,  369,  370,  371,  372,  373,  374
  375,  376,  377,  378,  379,  380,  381,  382,  383,  384,  385,  386,  387,  388,  389,  390
  391,  392,  393,  394,  395,  396,  397,  398,  399,  400,  401,  402,  403,  404,  405,  733
  734,  735,  736,  737,  738,  739,  740,  741,  742,  743,  744,  745,  746,  747,  748,  749
  750,  751,  752,  753,  754,  755,  756,  757,  758,  759,  760,  761, 1118, 1119, 1120, 1121
 1122, 1123, 1124, 1125, 1126, 1127, 1128, 1129, 1130, 1131, 1132, 1133, 1134, 1135, 1136, 1137
 1138, 1139, 1140, 1141, 1142, 1143, 1144, 1145, 1146, 1147, 1148, 1149, 1150, 1151, 1152, 1153
 1154, 1155, 1156, 1157, 1158, 1159, 1160, 1161, 1162, 1163, 1164, 1165, 1166, 1167, 1168, 1169
 1170, 1171, 1172, 1173, 1174, 1175
*Nset, nset=Fixed-Main, instance=panel-1
 4,
*Nset, nset=Load-Follower, instance=panel-1
 1210, 1369, 1687
*Nset, nset=Load-Main, instance=panel-1
 1528,
*Nset, nset=Web1-Follower, instance=panel-1
    1,   17,   18, 1523, 1524, 1525, 1526, 1527, 1528, 1529, 1530, 1531, 1532
*Nset, nset=Web1-Main, instance=panel-1
 2,
*Nset, nset=Web2-Follower, instance=panel-1
    5,   15,   16, 1364, 1365, 1366, 1367, 1368, 1369, 1370, 1371, 1372, 1373
*Nset, nset=Web2-Main, instance=panel-1
 6,
*Nset, nset=Web3-Follower, instance=panel-1
   11,   19,   20, 1682, 1683, 1684, 1685, 1686, 1687, 1688, 1689, 1690, 1691
*Nset, nset=Web3-Main, instance=panel-1
 12,
*Nset, nset=Web4-Follower, instance=panel-1
    8,   13,   14, 1205, 1206, 1207, 1208, 1209, 1210, 1211, 1212, 1213, 1214
*Nset, nset=Web4-Main, instance=panel-1
 7,
*Nset, nset=_PickedSet47, internal, instance=panel-1
    1,    2,    3,    4,    5,    6,    7,    8,    9,   10,   11,   12,  170,  171,  172,  173
  174,  175,  176,  177,  178,  179,  180,  181,  182,  183,  184,  185,  186,  187,  188,  189
  190,  191,  192,  193,  194,  195,  196,  197,  198,  199,  200,  201,  202,  203,  204,  205
  206,  207,  208,  209,  210,  211,  212,  213,  214,  215,  216,  217,  218,  219,  220,  221
  222,  223,  224,  225,  226,  227,  228,  229,  230,  231,  232,  233,  234,  235,  236,  237
  238,  239,  240,  241,  242,  243,  244,  245,  246,  247,  248,  249,  250,  251,  252,  253
  254,  255,  256,  257,  258,  259,  260,  261,  262,  263,  264,  265,  266,  267,  268,  269
  270,  271,  272,  273,  274,  275,  276,  277,  278,  279,  280,  281,  282,  283,  284,  285
  286,  287,  288,  289,  290,  291,  292,  293,  294,  295,  296,  297,  298,  299,  300,  301
  302,  303,  304,  305,  306,  307,  308,  309,  310,  311,  312,  313,  314,  315,  316,  317
  318,  319,  320,  321,  322,  323,  324,  325,  326,  327,  328,  329,  330,  331,  332,  333
  334,  335,  336,  337,  338,  339,  340,  341,  342,  343,  344,  345,  346,  347,  348,  349
  350,  351,  352,  353,  354,  355,  356,  357,  358,  359,  360,  361,  362,  363,  364,  365
  366,  367,  368,  369,  370,  371,  372,  373,  374,  375,  376,  377,  378,  379,  380,  381
  382,  383,  384,  385,  386,  387,  388,  389,  390,  391,  392,  393,  394,  395,  396,  397
  398,  399,  400,  401,  402,  403,  404,  405,  555,  556,  557,  558,  559,  560,  561,  562
  563,  564,  565,  566,  567,  568,  569,  570,  571,  572,  573,  574,  575,  576,  577,  578
  579,  580,  581,  582,  583,  733,  734,  735,  736,  737,  738,  739,  740,  741,  742,  743
  744,  745,  746,  747,  748,  749,  750,  751,  752,  753,  754,  755,  756,  757,  758,  759
  760,  761,  762,  763,  764,  765,  766,  767,  768,  769,  770,  771,  772,  773,  774,  775
** ... 18 like lines cut
*Nset, nset=_PickedSet48, internal, instance=panel-1
 16964,
*Nset, nset=_PickedSet49, internal, instance=panel-1, generate
 1209,  1686,   159
*Nset, nset=_PickedSet50, internal, instance=panel-1
 1210,
** Constraint: Fixed-Edge
*Equation
2
Fixed-Follower, 1, 1.
Fixed-Main, 1, -1.
** Constraint: Free-Edge
*Equation
2
Edge-Follower, 1, 1.
Edge-Main, 1, -1.
** Constraint: Load
*Equation
2
Load-Follower, 1, 1.
Load-Main, 1, -1.
** Constraint: Web1
*Equation
2
Web1-Follower, 2, 1.
Web1-Main, 2, -1.
** Constraint: Web2
*Equation
2
Web2-Follower, 2, 1.
Web2-Main, 2, -1.
** Constraint: Web3
*Equation
2
Web3-Follower, 2, 1.
Web3-Main, 2, -1.
** Constraint: Web4
*Equation
2
Web4-Follower, 2, 1.
Web4-Main, 2, -1.
*End Assembly
** 
** MATERIALS
** 
** Isotropic steel
*Material, name=M1
*Density
7850.,
*Elastic
 2.1e+11, 0.3
** ----------------------------------------------------------------
** 
** STEP: riks
**
*IMPERFECTION, FILE=eigen-multiweb, STEP=1
1, 0.00061
*Step, name=riks, nlgeom=YES, inc=50
*Static, riks
0.01, 30., 1e-08, , , 
** 
** BOUNDARY CONDITIONS
** 
** Name: Centre Type: Displacement/Rotation
*Boundary
_PickedSet48, 2, 2
** Name: Edge Type: Displacement/Rotation
*Boundary
_PickedSet47, 3, 3
** Name: End Type: Displacement/Rotation
*Boundary
_PickedSet49, 1, 1
** 
** LOADS
** 
** Name: Load-1   Type: Concentrated force
*Cload
_PickedSet50, 1, 1e+06
** 
** OUTPUT REQUESTS
** 
*Restart, write, frequency=0
** 
** FIELD OUTPUT: F-Output-1
** 
*Output, field, variable=PRESELECT
** 
** HISTORY OUTPUT: H-Output-1
** 
*Output, history, variable=PRESELECT
*End Step
