1

   Abaqus 2020                                  Date 08-Sep-2025   Time 19:38:40
   For use by UNIVERSITY OF BRITISH COLUMBIA under license from Dassault Systemes or its subsidiary.

                                                                                 
                                                                                 
 STEP    1     INCREMENT     1     STEP TIME    0.00    


                        S T E P       1     S T A T I C   A N A L Y S I S


                                                                                          

     AUTOMATIC LOAD CONTROL WITH -
          A SUGGESTED INITIAL INCREMENT IN ARC LENGTH           1.000E-03
          AND A TOTAL ARC LENGTH SCALE FACTOR OF                 70.0    
          THE MINIMUM ARC LENGTH INCREMENT ALLOWED IS           7.000E-04
          THE MAXIMUM ARC LENGTH INCREMENT ALLOWED IS           1.000E+36

     LINEAR EQUATION SOLVER TYPE         DIRECT SPARSE

     MODIFIED RIKS METHOD IS USED - AMPLITUDE REFERENCES ARE IGNORED

 CONVERGENCE TOLERANCE PARAMETERS FOR FORCE    
     CRITERION FOR RESIDUAL FORCE     FOR A NONLINEAR PROBLEM          5.000E-03
     CRITERION FOR DISP.    CORRECTION IN A NONLINEAR PROBLEM          1.000E-02
     INITIAL VALUE OF TIME AVERAGE FORCE                               1.000E-02
     AVERAGE FORCE     IS TIME AVERAGE FORCE    
     ALTERNATE CRIT. FOR RESIDUAL FORCE     FOR A NONLINEAR PROBLEM    2.000E-02
     CRITERION FOR ZERO FORCE     RELATIVE TO TIME AVRG. FORCE         1.000E-05
     CRITERION FOR RESIDUAL FORCE     WHEN THERE IS ZERO FLUX          1.000E-05
     CRITERION FOR DISP.    CORRECTION WHEN THERE IS ZERO FLUX         1.000E-03
     CRITERION FOR RESIDUAL FORCE     FOR A LINEAR INCREMENT           1.000E-08
     FIELD CONVERSION RATIO                                             1.00    
     CRITERION FOR ZERO FORCE     REL. TO TIME AVRG. MAX. FORCE        1.000E-05
     CRITERION FOR ZERO DISP.    RELATIVE TO CHARACTERISTIC LENGTH     1.000E-08

 CONVERGENCE TOLERANCE PARAMETERS FOR MOMENT   
     CRITERION FOR RESIDUAL MOMENT    FOR A NONLINEAR PROBLEM          5.000E-03
     CRITERION FOR ROTATION CORRECTION IN A NONLINEAR PROBLEM          1.000E-02
     INITIAL VALUE OF TIME AVERAGE MOMENT                              1.000E-02
     AVERAGE MOMENT    IS TIME AVERAGE MOMENT   
     ALTERNATE CRIT. FOR RESIDUAL MOMENT    FOR A NONLINEAR PROBLEM    2.000E-02
     CRITERION FOR ZERO MOMENT    RELATIVE TO TIME AVRG. MOMENT        1.000E-05
     CRITERION FOR RESIDUAL MOMENT    WHEN THERE IS ZERO FLUX          1.000E-05
     CRITERION FOR ROTATION CORRECTION WHEN THERE IS ZERO FLUX         1.000E-03
     CRITERION FOR RESIDUAL MOMENT    FOR A LINEAR INCREMENT           1.000E-08
     FIELD CONVERSION RATIO                                             1.00    
     CRITERION FOR ZERO MOMENT    REL. TO TIME AVRG. MAX. MOMENT       1.000E-05

     VOLUMETRIC STRAIN COMPATIBILITY TOLERANCE FOR HYBRID SOLIDS       1.000E-05
     AXIAL STRAIN COMPATIBILITY TOLERANCE FOR HYBRID BEAMS             1.000E-05
     TRANS. SHEAR STRAIN COMPATIBILITY TOLERANCE FOR HYBRID BEAMS      1.000E-05
     SOFT CONTACT CONSTRAINT COMPATIBILITY TOLERANCE FOR P>P0          5.000E-03
     SOFT CONTACT CONSTRAINT COMPATIBILITY TOLERANCE FOR P=0.0         0.100    
     CONTACT FORCE ERROR TOLERANCE FOR CONVERT SDI=YES                 1.00    
     DISPLACEMENT COMPATIBILITY TOLERANCE FOR DCOUP ELEMENTS           1.000E-05
     ROTATION COMPATIBILITY TOLERANCE FOR DCOUP ELEMENTS               1.000E-05

 EQUILIBRIUM WILL BE CHECKED FOR SEVERE DISCONTINUITY ITERATIONS

 TIME INCREMENTATION CONTROL PARAMETERS:
     FIRST EQUILIBRIUM ITERATION FOR CONSECUTIVE DIVERGENCE CHECK              4
     EQUILIBRIUM ITERATION AT WHICH LOG. CONVERGENCE RATE CHECK BEGINS         8
     EQUILIBRIUM ITERATION AFTER WHICH ALTERNATE RESIDUAL IS USED              9
     MAXIMUM EQUILIBRIUM ITERATIONS ALLOWED                                   16
     EQUILIBRIUM ITERATION COUNT FOR CUT-BACK IN NEXT INCREMENT               10
     MAXIMUM EQUILIB. ITERS IN TWO INCREMENTS FOR TIME INCREMENT INCREASE      4
     MAXIMUM ITERATIONS FOR SEVERE DISCONTINUITIES                            50
     MAXIMUM ATTEMPTS ALLOWED IN AN INCREMENT                                  5
     MAXIMUM DISCON. ITERS IN TWO INCREMENTS FOR TIME INCREMENT INCREASE      50
     MAXIMUM CONTACT AUGMENTATIONS FOR *SURFACE BEHAVIOR,AUGMENTED LAGRANGE   50
     CUT-BACK FACTOR AFTER DIVERGENCE                                 0.2500    
     CUT-BACK FACTOR FOR TOO SLOW CONVERGENCE                         0.5000    
     CUT-BACK FACTOR AFTER TOO MANY EQUILIBRIUM ITERATIONS            0.7500    
     CUT-BACK FACTOR AFTER TOO MANY SEVERE DISCONTINUITY ITERATIONS   0.2500    
     CUT-BACK FACTOR AFTER PROBLEMS IN ELEMENT ASSEMBLY               0.2500    
     INCREASE FACTOR AFTER TWO INCREMENTS THAT CONVERGE QUICKLY        1.500    
     MAX. TIME INCREMENT INCREASE FACTOR ALLOWED                       1.500    
     MAX. TIME INCREMENT INCREASE FACTOR ALLOWED (DYNAMICS)            1.250    
     MAX. TIME INCREMENT INCREASE FACTOR ALLOWED (DIFFUSION)           2.000    
     MINIMUM TIME INCREMENT RATIO FOR EXTRAPOLATION TO OCCUR          0.1000    
     MAX. RATIO OF TIME INCREMENT TO STABILITY LIMIT                   1.000    
     FRACTION OF STABILITY LIMIT FOR NEW TIME INCREMENT               0.9500    
     TIME INCREMENT INCREASE FACTOR BEFORE A TIME POINT                1.000    
     GLOBAL STABILIZATION CONTROL IS NOT USED

          PRINT OF INCREMENT NUMBER, TIME, ETC., EVERY    1  INCREMENTS

     THE MAXIMUM NUMBER OF INCREMENTS IN THIS STEP IS                      50

          LARGE DISPLACEMENT THEORY WILL BE USED

     LINEAR EXTRAPOLATION WILL BE USED

     CHARACTERISTIC ELEMENT LENGTH     2.002E-02

     DETAILS REGARDING ACTUAL SOLUTION WAVEFRONT REQUESTED

     DETAILED OUTPUT OF DIAGNOSTICS TO DATABASE REQUESTED

     PRINT OF INCREMENT NUMBER, TIME, ETC., TO THE MESSAGE FILE EVERY     1  INCREMENTS

     COLLECTING MODEL CONSTRAINT INFORMATION FOR OVERCONSTRAINT CHECKS

     COLLECTING STEP CONSTRAINT INFORMATION FOR OVERCONSTRAINT CHECKS


  INCREMENT     1 STARTS. ATTEMPT NUMBER  1

  NUMBER OF EQUATIONS =    141929     NUMBER OF RHS =    2
  NUMBER OF FLOATING PT. OPERATIONS =  1.47E+10

     CHECK POINT   START OF SOLVER    

     CHECK POINT  END OF SOLVER       

       ELAPSED USER TIME (SEC)      =  0.20000    
       ELAPSED SYSTEM TIME (SEC)    =   0.0000    
       ELAPSED TOTAL CPU TIME (SEC) =  0.20000    
       ELAPSED WALLCLOCK TIME (SEC) =          1

               CONVERGENCE CHECKS FOR EQUILIBRIUM ITERATION     1


 AVERAGE FORCE                      1.671E-02   TIME AVG. FORCE       1.671E-02
 LARGEST RESIDUAL FORCE             3.961E-05   AT NODE          4   DOF  1
   INSTANCE: PANEL-1                                                                         
 LARGEST INCREMENT OF DISP.         1.481E-08   AT NODE        757   DOF  1
   INSTANCE: PANEL-1                                                                         
 LARGEST CORRECTION TO DISP.        1.481E-08   AT NODE        757   DOF  1
   INSTANCE: PANEL-1                                                                         
 ESTIMATE OF DISP.    CORRECTION    4.107E-14
 FORCE     EQUILIB. ACCEPTED BASED ON SMALL RESIDUAL AND ESTIMATED CORRECTION

 AVERAGE MOMENT                     5.322E-06   TIME AVG. MOMENT      5.322E-06
 LARGEST RESIDUAL MOMENT            1.318E-08   AT NODE        756   DOF  5
   INSTANCE: PANEL-1                                                                         
 LARGEST INCREMENT OF ROTATION     -4.584E-07   AT NODE          1   DOF  5
   INSTANCE: PANEL-1                                                                         
 LARGEST CORRECTION TO ROTATION    -4.584E-07   AT NODE          1   DOF  5
   INSTANCE: PANEL-1                                                                         
          ROTATION CORRECTION TOO LARGE COMPARED TO ROTATION INCREMENT

  NUMBER OF EQUATIONS =    141929     NUMBER OF RHS =    2
  NUMBER OF FLOATING PT. OPERATIONS =  1.47E+10

     CHECK POINT   START OF SOLVER    

     CHECK POINT  END OF SOLVER       

       ELAPSED USER TIME (SEC)      =  0.50000    
       ELAPSED SYSTEM TIME (SEC)    =   0.0000    
       ELAPSED TOTAL CPU TIME (SEC) =  0.50000    
       ELAPSED WALLCLOCK TIME (SEC) =          1

               CONVERGENCE CHECKS FOR EQUILIBRIUM ITERATION     2


 AVERAGE FORCE                      1.671E-02   TIME AVG. FORCE       1.671E-02
 LARGEST RESIDUAL FORCE             3.391E-05   AT NODE          3   DOF  1
   INSTANCE: PANEL-1                                                                         
 LARGEST INCREMENT OF DISP.         1.481E-08   AT NODE        757   DOF  1
   INSTANCE: PANEL-1                                                                         
 LARGEST CORRECTION TO DISP.        1.093E-13   AT NODE      17260   DOF  3
   INSTANCE: PANEL-1                                                                         
          THE FORCE     EQUILIBRIUM EQUATIONS HAVE CONVERGED

 AVERAGE MOMENT                     5.323E-06   TIME AVG. MOMENT      5.323E-06
 LARGEST RESIDUAL MOMENT            5.028E-09   AT NODE         85   DOF  5
   INSTANCE: PANEL-1                                                                         
 LARGEST INCREMENT OF ROTATION     -4.584E-07   AT NODE          1   DOF  5
   INSTANCE: PANEL-1                                                                         
 LARGEST CORRECTION TO ROTATION     1.786E-12   AT NODE          1   DOF  5
   INSTANCE: PANEL-1                                                                         
          THE MOMENT    EQUILIBRIUM EQUATIONS HAVE CONVERGED

 ITERATION SUMMARY FOR THE INCREMENT:   2 TOTAL ITERATIONS, OF WHICH
   0 ARE SEVERE DISCONTINUITY ITERATIONS AND  2 ARE EQUILIBRIUM ITERATIONS.


                                INCREMENT     1 SUMMARY


     CURRENT LOAD PROPORTIONALITY FACTOR         1.4286E-05
     TOTAL ARC LENGTH   1.000E-03, INCREMENT OF ARC LENGTH   1.000E-03


  INCREMENT     2 STARTS. ATTEMPT NUMBER  1

  NUMBER OF EQUATIONS =    141929     NUMBER OF RHS =    2
  NUMBER OF FLOATING PT. OPERATIONS =  1.47E+10

     CHECK POINT   START OF SOLVER    

     CHECK POINT  END OF SOLVER       

       ELAPSED USER TIME (SEC)      =  0.50000    
       ELAPSED SYSTEM TIME (SEC)    =  0.10000    
       ELAPSED TOTAL CPU TIME (SEC) =  0.60000    
       ELAPSED WALLCLOCK TIME (SEC) =          1

               CONVERGENCE CHECKS FOR EQUILIBRIUM ITERATION     1


 AVERAGE FORCE                      5.268E-02   TIME AVG. FORCE       3.470E-02
 LARGEST RESIDUAL FORCE             1.549E-05   AT NODE          3   DOF  1
   INSTANCE: PANEL-1                                                                         
 LARGEST INCREMENT OF DISP.         1.481E-08   AT NODE        757   DOF  1
   INSTANCE: PANEL-1                                                                         
 LARGEST CORRECTION TO DISP.        1.481E-08   AT NODE        757   DOF  1
   INSTANCE: PANEL-1                                                                         
 ESTIMATE OF DISP.    CORRECTION    1.623E-14
 FORCE     EQUILIB. ACCEPTED BASED ON SMALL RESIDUAL AND ESTIMATED CORRECTION

 AVERAGE MOMENT                     1.481E-05   TIME AVG. MOMENT      1.007E-05
 LARGEST RESIDUAL MOMENT            1.210E-08   AT NODE        756   DOF  5
   INSTANCE: PANEL-1                                                                         
 LARGEST INCREMENT OF ROTATION     -4.584E-07   AT NODE          1   DOF  5
   INSTANCE: PANEL-1                                                                         
 LARGEST CORRECTION TO ROTATION    -4.584E-07   AT NODE          1   DOF  5
   INSTANCE: PANEL-1                                                                         
          ROTATION CORRECTION TOO LARGE COMPARED TO ROTATION INCREMENT

  NUMBER OF EQUATIONS =    141929     NUMBER OF RHS =    2
  NUMBER OF FLOATING PT. OPERATIONS =  1.47E+10

     CHECK POINT   START OF SOLVER    

     CHECK POINT  END OF SOLVER       

       ELAPSED USER TIME (SEC)      =  0.40000    
       ELAPSED SYSTEM TIME (SEC)    =   0.0000    
       ELAPSED TOTAL CPU TIME (SEC) =  0.40000    
       ELAPSED WALLCLOCK TIME (SEC) =          1

               CONVERGENCE CHECKS FOR EQUILIBRIUM ITERATION     2


 AVERAGE FORCE                      5.268E-02   TIME AVG. FORCE       3.470E-02
 LARGEST RESIDUAL FORCE            -1.294E-05   AT NODE      23707   DOF  1
   INSTANCE: PANEL-1                                                                         
 LARGEST INCREMENT OF DISP.         1.481E-08   AT NODE        757   DOF  1
   INSTANCE: PANEL-1                                                                         
 LARGEST CORRECTION TO DISP.        1.071E-13   AT NODE       6234   DOF  3
   INSTANCE: PANEL-1                                                                         
          THE FORCE     EQUILIBRIUM EQUATIONS HAVE CONVERGED

 AVERAGE MOMENT                     1.481E-05   TIME AVG. MOMENT      1.007E-05
 LARGEST RESIDUAL MOMENT           -2.742E-09   AT NODE      18863   DOF  4
   INSTANCE: PANEL-1                                                                         
 LARGEST INCREMENT OF ROTATION     -4.584E-07   AT NODE          1   DOF  5
   INSTANCE: PANEL-1                                                                         
 LARGEST CORRECTION TO ROTATION    -1.746E-12   AT NODE          2   DOF  5
   INSTANCE: PANEL-1                                                                         
          THE MOMENT    EQUILIBRIUM EQUATIONS HAVE CONVERGED
          ARC LENGTH INCREMENT MAY NOW INCREASE TO    1.500E-03

 ITERATION SUMMARY FOR THE INCREMENT:   2 TOTAL ITERATIONS, OF WHICH
   0 ARE SEVERE DISCONTINUITY ITERATIONS AND  2 ARE EQUILIBRIUM ITERATIONS.


                                INCREMENT     2 SUMMARY


     CURRENT LOAD PROPORTIONALITY FACTOR         2.8571E-05
     TOTAL ARC LENGTH   2.000E-03, INCREMENT OF ARC LENGTH   1.000E-03


  INCREMENT     3 STARTS. ATTEMPT NUMBER  1

  NUMBER OF EQUATIONS =    141929     NUMBER OF RHS =    2
  NUMBER OF FLOATING PT. OPERATIONS =  1.47E+10

     CHECK POINT   START OF SOLVER    

     CHECK POINT  END OF SOLVER       

       ELAPSED USER TIME (SEC)      =  0.70000    
       ELAPSED SYSTEM TIME (SEC)    =   0.0000    
       ELAPSED TOTAL CPU TIME (SEC) =  0.70000    
       ELAPSED WALLCLOCK TIME (SEC) =          1

               CONVERGENCE CHECKS FOR EQUILIBRIUM ITERATION     1


 AVERAGE FORCE                      9.103E-02   TIME AVG. FORCE       5.348E-02
 LARGEST RESIDUAL FORCE             2.152E-05   AT NODE          3   DOF  1
   INSTANCE: PANEL-1                                                                         
 LARGEST INCREMENT OF DISP.         2.222E-08   AT NODE        757   DOF  1
   INSTANCE: PANEL-1                                                                         
 LARGEST CORRECTION TO DISP.        2.222E-08   AT NODE        757   DOF  1
   INSTANCE: PANEL-1                                                                         
 ESTIMATE OF DISP.    CORRECTION    2.254E-14
 FORCE     EQUILIB. ACCEPTED BASED ON SMALL RESIDUAL AND ESTIMATED CORRECTION

 AVERAGE MOMENT                     2.577E-05   TIME AVG. MOMENT      1.530E-05
 LARGEST RESIDUAL MOMENT            2.795E-08   AT NODE        756   DOF  5
   INSTANCE: PANEL-1                                                                         
 LARGEST INCREMENT OF ROTATION     -6.876E-07   AT NODE          1   DOF  5
   INSTANCE: PANEL-1                                                                         
 LARGEST CORRECTION TO ROTATION    -6.876E-07   AT NODE          1   DOF  5
   INSTANCE: PANEL-1                                                                         
          ROTATION CORRECTION TOO LARGE COMPARED TO ROTATION INCREMENT

  NUMBER OF EQUATIONS =    141929     NUMBER OF RHS =    2
  NUMBER OF FLOATING PT. OPERATIONS =  1.47E+10

     CHECK POINT   START OF SOLVER    

     CHECK POINT  END OF SOLVER       

       ELAPSED USER TIME (SEC)      =  0.50000    
       ELAPSED SYSTEM TIME (SEC)    =   0.0000    
       ELAPSED TOTAL CPU TIME (SEC) =  0.50000    
       ELAPSED WALLCLOCK TIME (SEC) =          1

               CONVERGENCE CHECKS FOR EQUILIBRIUM ITERATION     2


 AVERAGE FORCE                      9.103E-02   TIME AVG. FORCE       5.348E-02
 LARGEST RESIDUAL FORCE            -2.907E-05   AT NODE          4   DOF  1
   INSTANCE: PANEL-1                                                                         
 LARGEST INCREMENT OF DISP.         2.222E-08   AT NODE        757   DOF  1
   INSTANCE: PANEL-1                                                                         
 LARGEST CORRECTION TO DISP.        2.444E-13   AT NODE       6234   DOF  3
   INSTANCE: PANEL-1                                                                         
          THE FORCE     EQUILIBRIUM EQUATIONS HAVE CONVERGED

 AVERAGE MOMENT                     2.577E-05   TIME AVG. MOMENT      1.530E-05
 LARGEST RESIDUAL MOMENT            2.725E-09   AT NODE       6260   DOF  4
   INSTANCE: PANEL-1                                                                         
 LARGEST INCREMENT OF ROTATION     -6.876E-07   AT NODE          1   DOF  5
   INSTANCE: PANEL-1                                                                         
 LARGEST CORRECTION TO ROTATION     3.985E-12   AT NODE          1   DOF  5
   INSTANCE: PANEL-1                                                                         
          THE MOMENT    EQUILIBRIUM EQUATIONS HAVE CONVERGED
          ARC LENGTH INCREMENT MAY NOW INCREASE TO    2.250E-03

 ITERATION SUMMARY FOR THE INCREMENT:   2 TOTAL ITERATIONS, OF WHICH
   0 ARE SEVERE DISCONTINUITY ITERATIONS AND  2 ARE EQUILIBRIUM ITERATIONS.


                                INCREMENT     3 SUMMARY


     CURRENT LOAD PROPORTIONALITY FACTOR         4.9999E-05
     TOTAL ARC LENGTH   3.500E-03, INCREMENT OF ARC LENGTH   1.500E-03


  INCREMENT     4 STARTS. ATTEMPT NUMBER  1

  NUMBER OF EQUATIONS =    141929     NUMBER OF RHS =    2
  NUMBER OF FLOATING PT. OPERATIONS =  1.47E+10

     CHECK POINT   START OF SOLVER    

     CHECK POINT  END OF SOLVER       

       ELAPSED USER TIME (SEC)      =  0.50000    
       ELAPSED SYSTEM TIME (SEC)    =   0.0000    
       ELAPSED TOTAL CPU TIME (SEC) =  0.50000    
       ELAPSED WALLCLOCK TIME (SEC) =          0

               CONVERGENCE CHECKS FOR EQUILIBRIUM ITERATION     1


 AVERAGE FORCE                      0.148       TIME AVG. FORCE       7.714E-02
 LARGEST RESIDUAL FORCE            -2.164E-05   AT NODE          4   DOF  1
   INSTANCE: PANEL-1                                                                         
 LARGEST INCREMENT OF DISP.         3.333E-08   AT NODE        757   DOF  1
   INSTANCE: PANEL-1                                                                         
 LARGEST CORRECTION TO DISP.        3.333E-08   AT NODE        757   DOF  1
   INSTANCE: PANEL-1                                                                         
 ESTIMATE OF DISP.    CORRECTION   -2.266E-14
 FORCE     EQUILIB. ACCEPTED BASED ON SMALL RESIDUAL AND ESTIMATED CORRECTION

 AVERAGE MOMENT                     4.211E-05   TIME AVG. MOMENT      2.200E-05
 LARGEST RESIDUAL MOMENT           -6.319E-08   AT NODE        757   DOF  5
   INSTANCE: PANEL-1                                                                         
 LARGEST INCREMENT OF ROTATION     -1.031E-06   AT NODE          1   DOF  5
   INSTANCE: PANEL-1                                                                         
 LARGEST CORRECTION TO ROTATION    -1.031E-06   AT NODE          1   DOF  5
   INSTANCE: PANEL-1                                                                         
          ROTATION CORRECTION TOO LARGE COMPARED TO ROTATION INCREMENT

  NUMBER OF EQUATIONS =    141929     NUMBER OF RHS =    2
  NUMBER OF FLOATING PT. OPERATIONS =  1.47E+10

     CHECK POINT   START OF SOLVER    

     CHECK POINT  END OF SOLVER       

       ELAPSED USER TIME (SEC)      =  0.40000    
       ELAPSED SYSTEM TIME (SEC)    =   0.0000    
       ELAPSED TOTAL CPU TIME (SEC) =  0.40000    
       ELAPSED WALLCLOCK TIME (SEC) =          1

               CONVERGENCE CHECKS FOR EQUILIBRIUM ITERATION     2


 AVERAGE FORCE                      0.148       TIME AVG. FORCE       7.713E-02
 LARGEST RESIDUAL FORCE            -2.628E-05   AT NODE          4   DOF  1
   INSTANCE: PANEL-1                                                                         
 LARGEST INCREMENT OF DISP.         3.333E-08   AT NODE        757   DOF  1
   INSTANCE: PANEL-1                                                                         
 LARGEST CORRECTION TO DISP.        5.446E-13   AT NODE       6234   DOF  3
   INSTANCE: PANEL-1                                                                         
          THE FORCE     EQUILIBRIUM EQUATIONS HAVE CONVERGED

 AVERAGE MOMENT                     4.211E-05   TIME AVG. MOMENT      2.200E-05
 LARGEST RESIDUAL MOMENT           -2.506E-09   AT NODE      17438   DOF  4
   INSTANCE: PANEL-1                                                                         
 LARGEST INCREMENT OF ROTATION     -1.031E-06   AT NODE          1   DOF  5
   INSTANCE: PANEL-1                                                                         
 LARGEST CORRECTION TO ROTATION     8.858E-12   AT NODE          1   DOF  5
   INSTANCE: PANEL-1                                                                         
          THE MOMENT    EQUILIBRIUM EQUATIONS HAVE CONVERGED
          ARC LENGTH INCREMENT MAY NOW INCREASE TO    3.375E-03

 ITERATION SUMMARY FOR THE INCREMENT:   2 TOTAL ITERATIONS, OF WHICH
   0 ARE SEVERE DISCONTINUITY ITERATIONS AND  2 ARE EQUILIBRIUM ITERATIONS.


                                INCREMENT     4 SUMMARY


     CURRENT LOAD PROPORTIONALITY FACTOR         8.2141E-05
     TOTAL ARC LENGTH   5.750E-03, INCREMENT OF ARC LENGTH   2.250E-03


  INCREMENT     5 STARTS. ATTEMPT NUMBER  1

  NUMBER OF EQUATIONS =    141929     NUMBER OF RHS =    2
  NUMBER OF FLOATING PT. OPERATIONS =  1.47E+10

     CHECK POINT   START OF SOLVER    

     CHECK POINT  END OF SOLVER       

       ELAPSED USER TIME (SEC)      =  0.50000    
       ELAPSED SYSTEM TIME (SEC)    =   0.0000    
       ELAPSED TOTAL CPU TIME (SEC) =  0.50000    
       ELAPSED WALLCLOCK TIME (SEC) =          1

               CONVERGENCE CHECKS FOR EQUILIBRIUM ITERATION     1


 AVERAGE FORCE                      0.233       TIME AVG. FORCE       0.108    
 LARGEST RESIDUAL FORCE            -7.552E-05   AT NODE          3   DOF  1
   INSTANCE: PANEL-1                                                                         
 LARGEST INCREMENT OF DISP.         4.999E-08   AT NODE        757   DOF  1
   INSTANCE: PANEL-1                                                                         
 LARGEST CORRECTION TO DISP.        4.999E-08   AT NODE        757   DOF  1
   INSTANCE: PANEL-1                                                                         
 ESTIMATE OF DISP.    CORRECTION   -7.910E-14
 FORCE     EQUILIB. ACCEPTED BASED ON SMALL RESIDUAL AND ESTIMATED CORRECTION

 AVERAGE MOMENT                     6.649E-05   TIME AVG. MOMENT      3.090E-05
 LARGEST RESIDUAL MOMENT           -1.415E-07   AT NODE        757   DOF  5
   INSTANCE: PANEL-1                                                                         
 LARGEST INCREMENT OF ROTATION     -1.547E-06   AT NODE          1   DOF  5
   INSTANCE: PANEL-1                                                                         
 LARGEST CORRECTION TO ROTATION    -1.547E-06   AT NODE          1   DOF  5
   INSTANCE: PANEL-1                                                                         
          ROTATION CORRECTION TOO LARGE COMPARED TO ROTATION INCREMENT

  NUMBER OF EQUATIONS =    141929     NUMBER OF RHS =    2
  NUMBER OF FLOATING PT. OPERATIONS =  1.47E+10

     CHECK POINT   START OF SOLVER    

     CHECK POINT  END OF SOLVER       

       ELAPSED USER TIME (SEC)      =  0.50000    
       ELAPSED SYSTEM TIME (SEC)    =   0.0000    
       ELAPSED TOTAL CPU TIME (SEC) =  0.50000    
       ELAPSED WALLCLOCK TIME (SEC) =          1

               CONVERGENCE CHECKS FOR EQUILIBRIUM ITERATION     2


 AVERAGE FORCE                      0.233       TIME AVG. FORCE       0.108    
 LARGEST RESIDUAL FORCE             1.123E-05   AT NODE      22972   DOF  1
   INSTANCE: PANEL-1                                                                         
 LARGEST INCREMENT OF DISP.         4.999E-08   AT NODE        757   DOF  1
   INSTANCE: PANEL-1                                                                         
 LARGEST CORRECTION TO DISP.        1.230E-12   AT NODE      17260   DOF  3
   INSTANCE: PANEL-1                                                                         
          THE FORCE     EQUILIBRIUM EQUATIONS HAVE CONVERGED

 AVERAGE MOMENT                     6.649E-05   TIME AVG. MOMENT      3.090E-05
 LARGEST RESIDUAL MOMENT           -2.521E-09   AT NODE       6266   DOF  4
   INSTANCE: PANEL-1                                                                         
 LARGEST INCREMENT OF ROTATION     -1.547E-06   AT NODE          1   DOF  5
   INSTANCE: PANEL-1                                                                         
 LARGEST CORRECTION TO ROTATION     1.998E-11   AT NODE          1   DOF  5
   INSTANCE: PANEL-1                                                                         
          THE MOMENT    EQUILIBRIUM EQUATIONS HAVE CONVERGED
          ARC LENGTH INCREMENT MAY NOW INCREASE TO    5.063E-03

 ITERATION SUMMARY FOR THE INCREMENT:   2 TOTAL ITERATIONS, OF WHICH
   0 ARE SEVERE DISCONTINUITY ITERATIONS AND  2 ARE EQUILIBRIUM ITERATIONS.


                                INCREMENT     5 SUMMARY


     CURRENT LOAD PROPORTIONALITY FACTOR         1.3035E-04
     TOTAL ARC LENGTH   9.125E-03, INCREMENT OF ARC LENGTH   3.375E-03


  INCREMENT     6 STARTS. ATTEMPT NUMBER  1

  NUMBER OF EQUATIONS =    141929     NUMBER OF RHS =    2
  NUMBER OF FLOATING PT. OPERATIONS =  1.47E+10

     CHECK POINT   START OF SOLVER    

     CHECK POINT  END OF SOLVER       

       ELAPSED USER TIME (SEC)      =  0.60000    
       ELAPSED SYSTEM TIME (SEC)    =   0.0000    
       ELAPSED TOTAL CPU TIME (SEC) =  0.60000    
       ELAPSED WALLCLOCK TIME (SEC) =          1

               CONVERGENCE CHECKS FOR EQUILIBRIUM ITERATION     1


 AVERAGE FORCE                      0.359       TIME AVG. FORCE       0.150    
 LARGEST RESIDUAL FORCE             4.674E-05   AT NODE          3   DOF  1
   INSTANCE: PANEL-1                                                                         
 LARGEST INCREMENT OF DISP.         7.499E-08   AT NODE        757   DOF  1
   INSTANCE: PANEL-1                                                                         
 LARGEST CORRECTION TO DISP.        7.499E-08   AT NODE        757   DOF  1
   INSTANCE: PANEL-1                                                                         
 ESTIMATE OF DISP.    CORRECTION    4.895E-14
 FORCE     EQUILIB. ACCEPTED BASED ON SMALL RESIDUAL AND ESTIMATED CORRECTION

 AVERAGE MOMENT                     1.028E-04   TIME AVG. MOMENT      4.289E-05
 LARGEST RESIDUAL MOMENT            3.183E-07   AT NODE        756   DOF  5
   INSTANCE: PANEL-1                                                                         
 LARGEST INCREMENT OF ROTATION     -2.321E-06   AT NODE          1   DOF  5
   INSTANCE: PANEL-1                                                                         
 LARGEST CORRECTION TO ROTATION    -2.321E-06   AT NODE          1   DOF  5
   INSTANCE: PANEL-1                                                                         
          MOMENT    EQUILIBRIUM NOT ACHIEVED WITHIN TOLERANCE.

  NUMBER OF EQUATIONS =    141929     NUMBER OF RHS =    2
  NUMBER OF FLOATING PT. OPERATIONS =  1.47E+10

     CHECK POINT   START OF SOLVER    

     CHECK POINT  END OF SOLVER       

       ELAPSED USER TIME (SEC)      =  0.50000    
       ELAPSED SYSTEM TIME (SEC)    =   0.0000    
       ELAPSED TOTAL CPU TIME (SEC) =  0.50000    
       ELAPSED WALLCLOCK TIME (SEC) =          1

               CONVERGENCE CHECKS FOR EQUILIBRIUM ITERATION     2


 AVERAGE FORCE                      0.359       TIME AVG. FORCE       0.150    
 LARGEST RESIDUAL FORCE             4.903E-05   AT NODE          4   DOF  1
   INSTANCE: PANEL-1                                                                         
 LARGEST INCREMENT OF DISP.         7.498E-08   AT NODE        757   DOF  1
   INSTANCE: PANEL-1                                                                         
 LARGEST CORRECTION TO DISP.        2.765E-12   AT NODE       6234   DOF  3
   INSTANCE: PANEL-1                                                                         
          THE FORCE     EQUILIBRIUM EQUATIONS HAVE CONVERGED

 AVERAGE MOMENT                     1.028E-04   TIME AVG. MOMENT      4.289E-05
 LARGEST RESIDUAL MOMENT           -2.383E-09   AT NODE         93   DOF  5
   INSTANCE: PANEL-1                                                                         
 LARGEST INCREMENT OF ROTATION     -2.321E-06   AT NODE          1   DOF  5
   INSTANCE: PANEL-1                                                                         
 LARGEST CORRECTION TO ROTATION    -4.494E-11   AT NODE          2   DOF  5
   INSTANCE: PANEL-1                                                                         
          THE MOMENT    EQUILIBRIUM EQUATIONS HAVE CONVERGED
          ARC LENGTH INCREMENT MAY NOW INCREASE TO    7.594E-03

 ITERATION SUMMARY FOR THE INCREMENT:   2 TOTAL ITERATIONS, OF WHICH
   0 ARE SEVERE DISCONTINUITY ITERATIONS AND  2 ARE EQUILIBRIUM ITERATIONS.


                                INCREMENT     6 SUMMARY


     CURRENT LOAD PROPORTIONALITY FACTOR         2.0267E-04
     TOTAL ARC LENGTH   1.419E-02, INCREMENT OF ARC LENGTH   5.063E-03


  INCREMENT     7 STARTS. ATTEMPT NUMBER  1

  NUMBER OF EQUATIONS =    141929     NUMBER OF RHS =    2
  NUMBER OF FLOATING PT. OPERATIONS =  1.47E+10

     CHECK POINT   START OF SOLVER    

     CHECK POINT  END OF SOLVER       

       ELAPSED USER TIME (SEC)      =  0.50000    
       ELAPSED SYSTEM TIME (SEC)    =   0.0000    
       ELAPSED TOTAL CPU TIME (SEC) =  0.50000    
       ELAPSED WALLCLOCK TIME (SEC) =          1

               CONVERGENCE CHECKS FOR EQUILIBRIUM ITERATION     1


 AVERAGE FORCE                      0.547       TIME AVG. FORCE       0.207    
 LARGEST RESIDUAL FORCE             8.404E-05   AT NODE        757   DOF  3
   INSTANCE: PANEL-1                                                                         
 LARGEST INCREMENT OF DISP.         1.125E-07   AT NODE        757   DOF  1
   INSTANCE: PANEL-1                                                                         
 LARGEST CORRECTION TO DISP.        1.125E-07   AT NODE        757   DOF  1
   INSTANCE: PANEL-1                                                                         
 ESTIMATE OF DISP.    CORRECTION    8.802E-14
 FORCE     EQUILIB. ACCEPTED BASED ON SMALL RESIDUAL AND ESTIMATED CORRECTION

 AVERAGE MOMENT                     1.571E-04   TIME AVG. MOMENT      5.921E-05
 LARGEST RESIDUAL MOMENT            7.161E-07   AT NODE        756   DOF  5
   INSTANCE: PANEL-1                                                                         
 LARGEST INCREMENT OF ROTATION     -3.481E-06   AT NODE          1   DOF  5
   INSTANCE: PANEL-1                                                                         
 LARGEST CORRECTION TO ROTATION    -3.481E-06   AT NODE          1   DOF  5
   INSTANCE: PANEL-1                                                                         
          MOMENT    EQUILIBRIUM NOT ACHIEVED WITHIN TOLERANCE.

  NUMBER OF EQUATIONS =    141929     NUMBER OF RHS =    2
  NUMBER OF FLOATING PT. OPERATIONS =  1.47E+10

     CHECK POINT   START OF SOLVER    

     CHECK POINT  END OF SOLVER       

       ELAPSED USER TIME (SEC)      =  0.50000    
       ELAPSED SYSTEM TIME (SEC)    =   0.0000    
       ELAPSED TOTAL CPU TIME (SEC) =  0.50000    
       ELAPSED WALLCLOCK TIME (SEC) =          1

               CONVERGENCE CHECKS FOR EQUILIBRIUM ITERATION     2


 AVERAGE FORCE                      0.547       TIME AVG. FORCE       0.207    
 LARGEST RESIDUAL FORCE            -4.150E-05   AT NODE          4   DOF  1
   INSTANCE: PANEL-1                                                                         
 LARGEST INCREMENT OF DISP.         1.125E-07   AT NODE        757   DOF  1
   INSTANCE: PANEL-1                                                                         
 LARGEST CORRECTION TO DISP.        6.221E-12   AT NODE       6234   DOF  3
   INSTANCE: PANEL-1                                                                         
          THE FORCE     EQUILIBRIUM EQUATIONS HAVE CONVERGED

 AVERAGE MOMENT                     1.571E-04   TIME AVG. MOMENT      5.921E-05
 LARGEST RESIDUAL MOMENT           -1.987E-09   AT NODE         10   DOF  5
   INSTANCE: PANEL-1                                                                         
 LARGEST INCREMENT OF ROTATION     -3.481E-06   AT NODE          1   DOF  5
   INSTANCE: PANEL-1                                                                         
 LARGEST CORRECTION TO ROTATION    -1.011E-10   AT NODE          2   DOF  5
   INSTANCE: PANEL-1                                                                         
          THE MOMENT    EQUILIBRIUM EQUATIONS HAVE CONVERGED
          ARC LENGTH INCREMENT MAY NOW INCREASE TO    1.139E-02

 ITERATION SUMMARY FOR THE INCREMENT:   2 TOTAL ITERATIONS, OF WHICH
   0 ARE SEVERE DISCONTINUITY ITERATIONS AND  2 ARE EQUILIBRIUM ITERATIONS.


                                INCREMENT     7 SUMMARY


     CURRENT LOAD PROPORTIONALITY FACTOR         3.1114E-04
     TOTAL ARC LENGTH   2.178E-02, INCREMENT OF ARC LENGTH   7.594E-03


  INCREMENT     8 STARTS. ATTEMPT NUMBER  1

  NUMBER OF EQUATIONS =    141929     NUMBER OF RHS =    2
  NUMBER OF FLOATING PT. OPERATIONS =  1.47E+10

     CHECK POINT   START OF SOLVER    

     CHECK POINT  END OF SOLVER       

       ELAPSED USER TIME (SEC)      =  0.40000    
       ELAPSED SYSTEM TIME (SEC)    =   0.0000    
       ELAPSED TOTAL CPU TIME (SEC) =  0.40000    
       ELAPSED WALLCLOCK TIME (SEC) =          0

               CONVERGENCE CHECKS FOR EQUILIBRIUM ITERATION     1


 AVERAGE FORCE                      0.825       TIME AVG. FORCE       0.284    
 LARGEST RESIDUAL FORCE             1.919E-04   AT NODE        757   DOF  3
   INSTANCE: PANEL-1                                                                         
 LARGEST INCREMENT OF DISP.         1.687E-07   AT NODE        757   DOF  1
   INSTANCE: PANEL-1                                                                         
 LARGEST CORRECTION TO DISP.        1.687E-07   AT NODE        757   DOF  1
   INSTANCE: PANEL-1                                                                         
 ESTIMATE OF DISP.    CORRECTION    2.010E-13
 FORCE     EQUILIB. ACCEPTED BASED ON SMALL RESIDUAL AND ESTIMATED CORRECTION

 AVERAGE MOMENT                     2.380E-04   TIME AVG. MOMENT      8.155E-05
 LARGEST RESIDUAL MOMENT            1.611E-06   AT NODE        756   DOF  5
   INSTANCE: PANEL-1                                                                         
 LARGEST INCREMENT OF ROTATION     -5.221E-06   AT NODE          1   DOF  5
   INSTANCE: PANEL-1                                                                         
 LARGEST CORRECTION TO ROTATION    -5.221E-06   AT NODE          1   DOF  5
   INSTANCE: PANEL-1                                                                         
          MOMENT    EQUILIBRIUM NOT ACHIEVED WITHIN TOLERANCE.

  NUMBER OF EQUATIONS =    141929     NUMBER OF RHS =    2
  NUMBER OF FLOATING PT. OPERATIONS =  1.47E+10

     CHECK POINT   START OF SOLVER    

     CHECK POINT  END OF SOLVER       

       ELAPSED USER TIME (SEC)      =  0.50000    
       ELAPSED SYSTEM TIME (SEC)    =   0.0000    
       ELAPSED TOTAL CPU TIME (SEC) =  0.50000    
       ELAPSED WALLCLOCK TIME (SEC) =          1

               CONVERGENCE CHECKS FOR EQUILIBRIUM ITERATION     2


 AVERAGE FORCE                      0.825       TIME AVG. FORCE       0.284    
 LARGEST RESIDUAL FORCE            -6.427E-05   AT NODE          3   DOF  1
   INSTANCE: PANEL-1                                                                         
 LARGEST INCREMENT OF DISP.         1.687E-07   AT NODE        757   DOF  1
   INSTANCE: PANEL-1                                                                         
 LARGEST CORRECTION TO DISP.        1.400E-11   AT NODE      17260   DOF  3
   INSTANCE: PANEL-1                                                                         
          THE FORCE     EQUILIBRIUM EQUATIONS HAVE CONVERGED

 AVERAGE MOMENT                     2.380E-04   TIME AVG. MOMENT      8.155E-05
 LARGEST RESIDUAL MOMENT            1.480E-09   AT NODE      12358   DOF  5
   INSTANCE: PANEL-1                                                                         
 LARGEST INCREMENT OF ROTATION     -5.220E-06   AT NODE          1   DOF  5
   INSTANCE: PANEL-1                                                                         
 LARGEST CORRECTION TO ROTATION     2.275E-10   AT NODE          1   DOF  5
   INSTANCE: PANEL-1                                                                         
          THE MOMENT    EQUILIBRIUM EQUATIONS HAVE CONVERGED
          ARC LENGTH INCREMENT MAY NOW INCREASE TO    1.709E-02

 ITERATION SUMMARY FOR THE INCREMENT:   2 TOTAL ITERATIONS, OF WHICH
   0 ARE SEVERE DISCONTINUITY ITERATIONS AND  2 ARE EQUILIBRIUM ITERATIONS.


                                INCREMENT     8 SUMMARY


     CURRENT LOAD PROPORTIONALITY FACTOR         4.7383E-04
     TOTAL ARC LENGTH   3.317E-02, INCREMENT OF ARC LENGTH   1.139E-02


  INCREMENT     9 STARTS. ATTEMPT NUMBER  1

  NUMBER OF EQUATIONS =    141929     NUMBER OF RHS =    2
  NUMBER OF FLOATING PT. OPERATIONS =  1.47E+10

     CHECK POINT   START OF SOLVER    

     CHECK POINT  END OF SOLVER       

       ELAPSED USER TIME (SEC)      =  0.50000    
       ELAPSED SYSTEM TIME (SEC)    =   0.0000    
       ELAPSED TOTAL CPU TIME (SEC) =  0.50000    
       ELAPSED WALLCLOCK TIME (SEC) =          1

               CONVERGENCE CHECKS FOR EQUILIBRIUM ITERATION     1


 AVERAGE FORCE                       1.23       TIME AVG. FORCE       0.389    
 LARGEST RESIDUAL FORCE             4.303E-04   AT NODE        757   DOF  3
   INSTANCE: PANEL-1                                                                         
 LARGEST INCREMENT OF DISP.         2.530E-07   AT NODE        757   DOF  1
   INSTANCE: PANEL-1                                                                         
 LARGEST CORRECTION TO DISP.        2.530E-07   AT NODE        757   DOF  1
   INSTANCE: PANEL-1                                                                         
 ESTIMATE OF DISP.    CORRECTION    4.507E-13
 FORCE     EQUILIB. ACCEPTED BASED ON SMALL RESIDUAL AND ESTIMATED CORRECTION

 AVERAGE MOMENT                     3.586E-04   TIME AVG. MOMENT      1.123E-04
 LARGEST RESIDUAL MOMENT           -3.623E-06   AT NODE        757   DOF  5
   INSTANCE: PANEL-1                                                                         
 LARGEST INCREMENT OF ROTATION     -7.830E-06   AT NODE          1   DOF  5
   INSTANCE: PANEL-1                                                                         
 LARGEST CORRECTION TO ROTATION    -7.830E-06   AT NODE          1   DOF  5
   INSTANCE: PANEL-1                                                                         
          MOMENT    EQUILIBRIUM NOT ACHIEVED WITHIN TOLERANCE.

  NUMBER OF EQUATIONS =    141929     NUMBER OF RHS =    2
  NUMBER OF FLOATING PT. OPERATIONS =  1.47E+10

     CHECK POINT   START OF SOLVER    

     CHECK POINT  END OF SOLVER       

       ELAPSED USER TIME (SEC)      =  0.50000    
       ELAPSED SYSTEM TIME (SEC)    =   0.0000    
       ELAPSED TOTAL CPU TIME (SEC) =  0.50000    
       ELAPSED WALLCLOCK TIME (SEC) =          1

               CONVERGENCE CHECKS FOR EQUILIBRIUM ITERATION     2


 AVERAGE FORCE                       1.23       TIME AVG. FORCE       0.389    
 LARGEST RESIDUAL FORCE             3.907E-05   AT NODE          3   DOF  1
   INSTANCE: PANEL-1                                                                         
 LARGEST INCREMENT OF DISP.         2.530E-07   AT NODE        757   DOF  1
   INSTANCE: PANEL-1                                                                         
 LARGEST CORRECTION TO DISP.        3.150E-11   AT NODE      17260   DOF  3
   INSTANCE: PANEL-1                                                                         
          THE FORCE     EQUILIBRIUM EQUATIONS HAVE CONVERGED

 AVERAGE MOMENT                     3.587E-04   TIME AVG. MOMENT      1.123E-04
 LARGEST RESIDUAL MOMENT           -1.164E-09   AT NODE      23702   DOF  5
   INSTANCE: PANEL-1                                                                         
 LARGEST INCREMENT OF ROTATION     -7.830E-06   AT NODE          1   DOF  5
   INSTANCE: PANEL-1                                                                         
 LARGEST CORRECTION TO ROTATION    -5.122E-10   AT NODE          2   DOF  5
   INSTANCE: PANEL-1                                                                         
          THE MOMENT    EQUILIBRIUM EQUATIONS HAVE CONVERGED
          ARC LENGTH INCREMENT MAY NOW INCREASE TO    2.563E-02

 ITERATION SUMMARY FOR THE INCREMENT:   2 TOTAL ITERATIONS, OF WHICH
   0 ARE SEVERE DISCONTINUITY ITERATIONS AND  2 ARE EQUILIBRIUM ITERATIONS.


                                INCREMENT     9 SUMMARY


     CURRENT LOAD PROPORTIONALITY FACTOR         7.1784E-04
     TOTAL ARC LENGTH   5.026E-02, INCREMENT OF ARC LENGTH   1.709E-02


  INCREMENT    10 STARTS. ATTEMPT NUMBER  1

  NUMBER OF EQUATIONS =    141929     NUMBER OF RHS =    2
  NUMBER OF FLOATING PT. OPERATIONS =  1.47E+10

     CHECK POINT   START OF SOLVER    

     CHECK POINT  END OF SOLVER       

       ELAPSED USER TIME (SEC)      =  0.60000    
       ELAPSED SYSTEM TIME (SEC)    =   0.0000    
       ELAPSED TOTAL CPU TIME (SEC) =  0.60000    
       ELAPSED WALLCLOCK TIME (SEC) =          1

               CONVERGENCE CHECKS FOR EQUILIBRIUM ITERATION     1


 AVERAGE FORCE                       1.79       TIME AVG. FORCE       0.529    
 LARGEST RESIDUAL FORCE             9.679E-04   AT NODE        756   DOF  3
   INSTANCE: PANEL-1                                                                         
 LARGEST INCREMENT OF DISP.         3.795E-07   AT NODE        757   DOF  1
   INSTANCE: PANEL-1                                                                         
 LARGEST CORRECTION TO DISP.        3.795E-07   AT NODE        757   DOF  1
   INSTANCE: PANEL-1                                                                         
 ESTIMATE OF DISP.    CORRECTION    1.014E-12
 FORCE     EQUILIB. ACCEPTED BASED ON SMALL RESIDUAL AND ESTIMATED CORRECTION

 AVERAGE MOMENT                     5.387E-04   TIME AVG. MOMENT      1.550E-04
 LARGEST RESIDUAL MOMENT            8.151E-06   AT NODE        756   DOF  5
   INSTANCE: PANEL-1                                                                         
 LARGEST INCREMENT OF ROTATION     -1.174E-05   AT NODE          1   DOF  5
   INSTANCE: PANEL-1                                                                         
 LARGEST CORRECTION TO ROTATION    -1.174E-05   AT NODE          1   DOF  5
   INSTANCE: PANEL-1                                                                         
          MOMENT    EQUILIBRIUM NOT ACHIEVED WITHIN TOLERANCE.

  NUMBER OF EQUATIONS =    141929     NUMBER OF RHS =    2
  NUMBER OF FLOATING PT. OPERATIONS =  1.47E+10

     CHECK POINT   START OF SOLVER    

     CHECK POINT  END OF SOLVER       

       ELAPSED USER TIME (SEC)      =  0.50000    
       ELAPSED SYSTEM TIME (SEC)    =   0.0000    
       ELAPSED TOTAL CPU TIME (SEC) =  0.50000    
       ELAPSED WALLCLOCK TIME (SEC) =          1

               CONVERGENCE CHECKS FOR EQUILIBRIUM ITERATION     2


 AVERAGE FORCE                       1.79       TIME AVG. FORCE       0.529    
 LARGEST RESIDUAL FORCE            -3.908E-05   AT NODE          3   DOF  1
   INSTANCE: PANEL-1                                                                         
 LARGEST INCREMENT OF DISP.         3.795E-07   AT NODE        757   DOF  1
   INSTANCE: PANEL-1                                                                         
 LARGEST CORRECTION TO DISP.        7.089E-11   AT NODE       6234   DOF  3
   INSTANCE: PANEL-1                                                                         
          THE FORCE     EQUILIBRIUM EQUATIONS HAVE CONVERGED

 AVERAGE MOMENT                     5.387E-04   TIME AVG. MOMENT      1.550E-04
 LARGEST RESIDUAL MOMENT            1.645E-09   AT NODE      23707   DOF  5
   INSTANCE: PANEL-1                                                                         
 LARGEST INCREMENT OF ROTATION     -1.174E-05   AT NODE          1   DOF  5
   INSTANCE: PANEL-1                                                                         
 LARGEST CORRECTION TO ROTATION     1.153E-09   AT NODE          1   DOF  5
   INSTANCE: PANEL-1                                                                         
          THE MOMENT    EQUILIBRIUM EQUATIONS HAVE CONVERGED
          ARC LENGTH INCREMENT MAY NOW INCREASE TO    3.844E-02

 ITERATION SUMMARY FOR THE INCREMENT:   2 TOTAL ITERATIONS, OF WHICH
   0 ARE SEVERE DISCONTINUITY ITERATIONS AND  2 ARE EQUILIBRIUM ITERATIONS.


                                INCREMENT    10 SUMMARY


     CURRENT LOAD PROPORTIONALITY FACTOR         1.0838E-03
     TOTAL ARC LENGTH   7.589E-02, INCREMENT OF ARC LENGTH   2.563E-02


  INCREMENT    11 STARTS. ATTEMPT NUMBER  1

  NUMBER OF EQUATIONS =    141929     NUMBER OF RHS =    2
  NUMBER OF FLOATING PT. OPERATIONS =  1.47E+10

     CHECK POINT   START OF SOLVER    

     CHECK POINT  END OF SOLVER       

       ELAPSED USER TIME (SEC)      =  0.40000    
       ELAPSED SYSTEM TIME (SEC)    =   0.0000    
       ELAPSED TOTAL CPU TIME (SEC) =  0.40000    
       ELAPSED WALLCLOCK TIME (SEC) =          1

               CONVERGENCE CHECKS FOR EQUILIBRIUM ITERATION     1


 AVERAGE FORCE                       2.54       TIME AVG. FORCE       0.711    
 LARGEST RESIDUAL FORCE             2.175E-03   AT NODE        757   DOF  3
   INSTANCE: PANEL-1                                                                         
 LARGEST INCREMENT OF DISP.         5.692E-07   AT NODE        757   DOF  1
   INSTANCE: PANEL-1                                                                         
 LARGEST CORRECTION TO DISP.        5.692E-07   AT NODE        757   DOF  1
   INSTANCE: PANEL-1                                                                         
 ESTIMATE OF DISP.    CORRECTION    2.278E-12
 FORCE     EQUILIB. ACCEPTED BASED ON SMALL RESIDUAL AND ESTIMATED CORRECTION

 AVERAGE MOMENT                     8.074E-04   TIME AVG. MOMENT      2.143E-04
 LARGEST RESIDUAL MOMENT            1.833E-05   AT NODE        756   DOF  5
   INSTANCE: PANEL-1                                                                         
 LARGEST INCREMENT OF ROTATION     -1.761E-05   AT NODE          1   DOF  5
   INSTANCE: PANEL-1                                                                         
 LARGEST CORRECTION TO ROTATION    -1.761E-05   AT NODE          1   DOF  5
   INSTANCE: PANEL-1                                                                         
          MOMENT    EQUILIBRIUM NOT ACHIEVED WITHIN TOLERANCE.

  NUMBER OF EQUATIONS =    141929     NUMBER OF RHS =    2
  NUMBER OF FLOATING PT. OPERATIONS =  1.47E+10

     CHECK POINT   START OF SOLVER    

     CHECK POINT  END OF SOLVER       

       ELAPSED USER TIME (SEC)      =  0.50000    
       ELAPSED SYSTEM TIME (SEC)    =   0.0000    
       ELAPSED TOTAL CPU TIME (SEC) =  0.50000    
       ELAPSED WALLCLOCK TIME (SEC) =          1

               CONVERGENCE CHECKS FOR EQUILIBRIUM ITERATION     2


 AVERAGE FORCE                       2.54       TIME AVG. FORCE       0.711    
 LARGEST RESIDUAL FORCE             3.030E-05   AT NODE          4   DOF  1
   INSTANCE: PANEL-1                                                                         
 LARGEST INCREMENT OF DISP.         5.691E-07   AT NODE        757   DOF  1
   INSTANCE: PANEL-1                                                                         
 LARGEST CORRECTION TO DISP.        1.596E-10   AT NODE      17260   DOF  3
   INSTANCE: PANEL-1                                                                         
          THE FORCE     EQUILIBRIUM EQUATIONS HAVE CONVERGED

 AVERAGE MOMENT                     8.074E-04   TIME AVG. MOMENT      2.143E-04
 LARGEST RESIDUAL MOMENT           -1.501E-09   AT NODE      23705   DOF  5
   INSTANCE: PANEL-1                                                                         
 LARGEST INCREMENT OF ROTATION     -1.761E-05   AT NODE          1   DOF  5
   INSTANCE: PANEL-1                                                                         
 LARGEST CORRECTION TO ROTATION    -2.596E-09   AT NODE          2   DOF  5
   INSTANCE: PANEL-1                                                                         
          THE MOMENT    EQUILIBRIUM EQUATIONS HAVE CONVERGED
          ARC LENGTH INCREMENT MAY NOW INCREASE TO    5.767E-02

 ITERATION SUMMARY FOR THE INCREMENT:   2 TOTAL ITERATIONS, OF WHICH
   0 ARE SEVERE DISCONTINUITY ITERATIONS AND  2 ARE EQUILIBRIUM ITERATIONS.


                                INCREMENT    11 SUMMARY


     CURRENT LOAD PROPORTIONALITY FACTOR         1.6326E-03
     TOTAL ARC LENGTH   0.114    , INCREMENT OF ARC LENGTH   3.844E-02


  INCREMENT    12 STARTS. ATTEMPT NUMBER  1

  NUMBER OF EQUATIONS =    141929     NUMBER OF RHS =    2
  NUMBER OF FLOATING PT. OPERATIONS =  1.47E+10

     CHECK POINT   START OF SOLVER    

     CHECK POINT  END OF SOLVER       

       ELAPSED USER TIME (SEC)      =  0.60000    
       ELAPSED SYSTEM TIME (SEC)    =   0.0000    
       ELAPSED TOTAL CPU TIME (SEC) =  0.60000    
       ELAPSED WALLCLOCK TIME (SEC) =          0

               CONVERGENCE CHECKS FOR EQUILIBRIUM ITERATION     1


 AVERAGE FORCE                       3.68       TIME AVG. FORCE       0.959    
 LARGEST RESIDUAL FORCE             4.895E-03   AT NODE        756   DOF  3
   INSTANCE: PANEL-1                                                                         
 LARGEST INCREMENT OF DISP.         8.535E-07   AT NODE        757   DOF  1
   INSTANCE: PANEL-1                                                                         
 LARGEST CORRECTION TO DISP.        8.535E-07   AT NODE        757   DOF  1
   INSTANCE: PANEL-1                                                                         
          FORCE     EQUILIBRIUM NOT ACHIEVED WITHIN TOLERANCE.

 AVERAGE MOMENT                     1.208E-03   TIME AVG. MOMENT      2.971E-04
 LARGEST RESIDUAL MOMENT            4.122E-05   AT NODE        756   DOF  5
   INSTANCE: PANEL-1                                                                         
 LARGEST INCREMENT OF ROTATION     -2.641E-05   AT NODE          1   DOF  5
   INSTANCE: PANEL-1                                                                         
 LARGEST CORRECTION TO ROTATION    -2.641E-05   AT NODE          1   DOF  5
   INSTANCE: PANEL-1                                                                         
          MOMENT    EQUILIBRIUM NOT ACHIEVED WITHIN TOLERANCE.

  NUMBER OF EQUATIONS =    141929     NUMBER OF RHS =    2
  NUMBER OF FLOATING PT. OPERATIONS =  1.47E+10

     CHECK POINT   START OF SOLVER    

     CHECK POINT  END OF SOLVER       

       ELAPSED USER TIME (SEC)      =  0.50000    
       ELAPSED SYSTEM TIME (SEC)    =   0.0000    
       ELAPSED TOTAL CPU TIME (SEC) =  0.50000    
       ELAPSED WALLCLOCK TIME (SEC) =          1

               CONVERGENCE CHECKS FOR EQUILIBRIUM ITERATION     2


 AVERAGE FORCE                       3.68       TIME AVG. FORCE       0.959    
 LARGEST RESIDUAL FORCE            -5.088E-05   AT NODE          4   DOF  1
   INSTANCE: PANEL-1                                                                         
 LARGEST INCREMENT OF DISP.         8.533E-07   AT NODE        757   DOF  1
   INSTANCE: PANEL-1                                                                         
 LARGEST CORRECTION TO DISP.        3.592E-10   AT NODE       6234   DOF  3
   INSTANCE: PANEL-1                                                                         
          THE FORCE     EQUILIBRIUM EQUATIONS HAVE CONVERGED

 AVERAGE MOMENT                     1.208E-03   TIME AVG. MOMENT      2.971E-04
 LARGEST RESIDUAL MOMENT            2.626E-09   AT NODE        157   DOF  5
   INSTANCE: PANEL-1                                                                         
 LARGEST INCREMENT OF ROTATION     -2.640E-05   AT NODE          1   DOF  5
   INSTANCE: PANEL-1                                                                         
 LARGEST CORRECTION TO ROTATION     5.849E-09   AT NODE          1   DOF  5
   INSTANCE: PANEL-1                                                                         
          THE MOMENT    EQUILIBRIUM EQUATIONS HAVE CONVERGED
          ARC LENGTH INCREMENT MAY NOW INCREASE TO    8.650E-02

 ITERATION SUMMARY FOR THE INCREMENT:   2 TOTAL ITERATIONS, OF WHICH
   0 ARE SEVERE DISCONTINUITY ITERATIONS AND  2 ARE EQUILIBRIUM ITERATIONS.


                                INCREMENT    12 SUMMARY


     CURRENT LOAD PROPORTIONALITY FACTOR         2.4556E-03
     TOTAL ARC LENGTH   0.172    , INCREMENT OF ARC LENGTH   5.767E-02


  INCREMENT    13 STARTS. ATTEMPT NUMBER  1

  NUMBER OF EQUATIONS =    141929     NUMBER OF RHS =    2
  NUMBER OF FLOATING PT. OPERATIONS =  1.47E+10

     CHECK POINT   START OF SOLVER    

     CHECK POINT  END OF SOLVER       

       ELAPSED USER TIME (SEC)      =  0.50000    
       ELAPSED SYSTEM TIME (SEC)    =   0.0000    
       ELAPSED TOTAL CPU TIME (SEC) =  0.50000    
       ELAPSED WALLCLOCK TIME (SEC) =          1

               CONVERGENCE CHECKS FOR EQUILIBRIUM ITERATION     1


 AVERAGE FORCE                       5.38       TIME AVG. FORCE        1.30    
 LARGEST RESIDUAL FORCE             1.100E-02   AT NODE        757   DOF  3
   INSTANCE: PANEL-1                                                                         
 LARGEST INCREMENT OF DISP.         1.280E-06   AT NODE        757   DOF  1
   INSTANCE: PANEL-1                                                                         
 LARGEST CORRECTION TO DISP.        1.280E-06   AT NODE        757   DOF  1
   INSTANCE: PANEL-1                                                                         
          FORCE     EQUILIBRIUM NOT ACHIEVED WITHIN TOLERANCE.

 AVERAGE MOMENT                     1.806E-03   TIME AVG. MOMENT      4.132E-04
 LARGEST RESIDUAL MOMENT           -9.268E-05   AT NODE        757   DOF  5
   INSTANCE: PANEL-1                                                                         
 LARGEST INCREMENT OF ROTATION     -3.960E-05   AT NODE          1   DOF  5
   INSTANCE: PANEL-1                                                                         
 LARGEST CORRECTION TO ROTATION    -3.960E-05   AT NODE          1   DOF  5
   INSTANCE: PANEL-1                                                                         
          MOMENT    EQUILIBRIUM NOT ACHIEVED WITHIN TOLERANCE.

  NUMBER OF EQUATIONS =    141929     NUMBER OF RHS =    2
  NUMBER OF FLOATING PT. OPERATIONS =  1.47E+10

     CHECK POINT   START OF SOLVER    

     CHECK POINT  END OF SOLVER       

       ELAPSED USER TIME (SEC)      =  0.50000    
       ELAPSED SYSTEM TIME (SEC)    =   0.0000    
       ELAPSED TOTAL CPU TIME (SEC) =  0.50000    
       ELAPSED WALLCLOCK TIME (SEC) =          0

               CONVERGENCE CHECKS FOR EQUILIBRIUM ITERATION     2


 AVERAGE FORCE                       5.38       TIME AVG. FORCE        1.30    
 LARGEST RESIDUAL FORCE            -3.527E-05   AT NODE          4   DOF  1
   INSTANCE: PANEL-1                                                                         
 LARGEST INCREMENT OF DISP.         1.279E-06   AT NODE        757   DOF  1
   INSTANCE: PANEL-1                                                                         
 LARGEST CORRECTION TO DISP.        8.086E-10   AT NODE      17260   DOF  3
   INSTANCE: PANEL-1                                                                         
          THE FORCE     EQUILIBRIUM EQUATIONS HAVE CONVERGED

 AVERAGE MOMENT                     1.806E-03   TIME AVG. MOMENT      4.132E-04
 LARGEST RESIDUAL MOMENT           -4.974E-09   AT NODE          9   DOF  5
   INSTANCE: PANEL-1                                                                         
 LARGEST INCREMENT OF ROTATION     -3.958E-05   AT NODE          1   DOF  5
   INSTANCE: PANEL-1                                                                         
 LARGEST CORRECTION TO ROTATION     1.318E-08   AT NODE          1   DOF  5
   INSTANCE: PANEL-1                                                                         
          THE MOMENT    EQUILIBRIUM EQUATIONS HAVE CONVERGED
          ARC LENGTH INCREMENT MAY NOW INCREASE TO    0.130    

 ITERATION SUMMARY FOR THE INCREMENT:   2 TOTAL ITERATIONS, OF WHICH
   0 ARE SEVERE DISCONTINUITY ITERATIONS AND  2 ARE EQUILIBRIUM ITERATIONS.


                                INCREMENT    13 SUMMARY


     CURRENT LOAD PROPORTIONALITY FACTOR         3.6894E-03
     TOTAL ARC LENGTH   0.258    , INCREMENT OF ARC LENGTH   8.650E-02


  INCREMENT    14 STARTS. ATTEMPT NUMBER  1

  NUMBER OF EQUATIONS =    141929     NUMBER OF RHS =    2
  NUMBER OF FLOATING PT. OPERATIONS =  1.47E+10

     CHECK POINT   START OF SOLVER    

     CHECK POINT  END OF SOLVER       

       ELAPSED USER TIME (SEC)      =  0.50000    
       ELAPSED SYSTEM TIME (SEC)    =   0.0000    
       ELAPSED TOTAL CPU TIME (SEC) =  0.50000    
       ELAPSED WALLCLOCK TIME (SEC) =          1

               CONVERGENCE CHECKS FOR EQUILIBRIUM ITERATION     1


 AVERAGE FORCE                       7.90       TIME AVG. FORCE        1.77    
 LARGEST RESIDUAL FORCE             2.473E-02   AT NODE        757   DOF  3
   INSTANCE: PANEL-1                                                                         
 LARGEST INCREMENT OF DISP.         1.918E-06   AT NODE        757   DOF  1
   INSTANCE: PANEL-1                                                                         
 LARGEST CORRECTION TO DISP.        1.918E-06   AT NODE        757   DOF  1
   INSTANCE: PANEL-1                                                                         
          FORCE     EQUILIBRIUM NOT ACHIEVED WITHIN TOLERANCE.

 AVERAGE MOMENT                     2.700E-03   TIME AVG. MOMENT      5.766E-04
 LARGEST RESIDUAL MOMENT            2.083E-04   AT NODE        756   DOF  5
   INSTANCE: PANEL-1                                                                         
 LARGEST INCREMENT OF ROTATION     -5.936E-05   AT NODE          1   DOF  5
   INSTANCE: PANEL-1                                                                         
 LARGEST CORRECTION TO ROTATION    -5.936E-05   AT NODE          1   DOF  5
   INSTANCE: PANEL-1                                                                         
          MOMENT    EQUILIBRIUM NOT ACHIEVED WITHIN TOLERANCE.

  NUMBER OF EQUATIONS =    141929     NUMBER OF RHS =    2
  NUMBER OF FLOATING PT. OPERATIONS =  1.47E+10

     CHECK POINT   START OF SOLVER    

     CHECK POINT  END OF SOLVER       

       ELAPSED USER TIME (SEC)      =  0.50000    
       ELAPSED SYSTEM TIME (SEC)    =   0.0000    
       ELAPSED TOTAL CPU TIME (SEC) =  0.50000    
       ELAPSED WALLCLOCK TIME (SEC) =          1

               CONVERGENCE CHECKS FOR EQUILIBRIUM ITERATION     2


 AVERAGE FORCE                       7.90       TIME AVG. FORCE        1.77    
 LARGEST RESIDUAL FORCE            -4.548E-05   AT NODE          3   DOF  1
   INSTANCE: PANEL-1                                                                         
 LARGEST INCREMENT OF DISP.         1.918E-06   AT NODE        757   DOF  1
   INSTANCE: PANEL-1                                                                         
 LARGEST CORRECTION TO DISP.        1.821E-09   AT NODE       6234   DOF  3
   INSTANCE: PANEL-1                                                                         
          THE FORCE     EQUILIBRIUM EQUATIONS HAVE CONVERGED

 AVERAGE MOMENT                     2.700E-03   TIME AVG. MOMENT      5.766E-04
 LARGEST RESIDUAL MOMENT            1.549E-08   AT NODE        157   DOF  5
   INSTANCE: PANEL-1                                                                         
 LARGEST INCREMENT OF ROTATION     -5.933E-05   AT NODE          1   DOF  5
   INSTANCE: PANEL-1                                                                         
 LARGEST CORRECTION TO ROTATION     2.974E-08   AT NODE          1   DOF  5
   INSTANCE: PANEL-1                                                                         
          THE MOMENT    EQUILIBRIUM EQUATIONS HAVE CONVERGED
          ARC LENGTH INCREMENT MAY NOW INCREASE TO    0.195    

 ITERATION SUMMARY FOR THE INCREMENT:   2 TOTAL ITERATIONS, OF WHICH
   0 ARE SEVERE DISCONTINUITY ITERATIONS AND  2 ARE EQUILIBRIUM ITERATIONS.


                                INCREMENT    14 SUMMARY


     CURRENT LOAD PROPORTIONALITY FACTOR         5.5387E-03
     TOTAL ARC LENGTH   0.388    , INCREMENT OF ARC LENGTH   0.130    


  INCREMENT    15 STARTS. ATTEMPT NUMBER  1

  NUMBER OF EQUATIONS =    141929     NUMBER OF RHS =    2
  NUMBER OF FLOATING PT. OPERATIONS =  1.47E+10

     CHECK POINT   START OF SOLVER    

     CHECK POINT  END OF SOLVER       

       ELAPSED USER TIME (SEC)      =  0.50000    
       ELAPSED SYSTEM TIME (SEC)    =   0.0000    
       ELAPSED TOTAL CPU TIME (SEC) =  0.50000    
       ELAPSED WALLCLOCK TIME (SEC) =          1

               CONVERGENCE CHECKS FOR EQUILIBRIUM ITERATION     1


 AVERAGE FORCE                       11.7       TIME AVG. FORCE        2.43    
 LARGEST RESIDUAL FORCE             5.555E-02   AT NODE        757   DOF  3
   INSTANCE: PANEL-1                                                                         
 LARGEST INCREMENT OF DISP.         2.875E-06   AT NODE        757   DOF  1
   INSTANCE: PANEL-1                                                                         
 LARGEST CORRECTION TO DISP.        2.875E-06   AT NODE        757   DOF  1
   INSTANCE: PANEL-1                                                                         
          FORCE     EQUILIBRIUM NOT ACHIEVED WITHIN TOLERANCE.

 AVERAGE MOMENT                     4.034E-03   TIME AVG. MOMENT      8.071E-04
 LARGEST RESIDUAL MOMENT            4.678E-04   AT NODE        756   DOF  5
   INSTANCE: PANEL-1                                                                         
 LARGEST INCREMENT OF ROTATION     -8.894E-05   AT NODE          1   DOF  5
   INSTANCE: PANEL-1                                                                         
 LARGEST CORRECTION TO ROTATION    -8.894E-05   AT NODE          1   DOF  5
   INSTANCE: PANEL-1                                                                         
          MOMENT    EQUILIBRIUM NOT ACHIEVED WITHIN TOLERANCE.

  NUMBER OF EQUATIONS =    141929     NUMBER OF RHS =    2
  NUMBER OF FLOATING PT. OPERATIONS =  1.47E+10

     CHECK POINT   START OF SOLVER    

     CHECK POINT  END OF SOLVER       

       ELAPSED USER TIME (SEC)      =  0.40000    
       ELAPSED SYSTEM TIME (SEC)    =  0.10000    
       ELAPSED TOTAL CPU TIME (SEC) =  0.50000    
       ELAPSED WALLCLOCK TIME (SEC) =          1

               CONVERGENCE CHECKS FOR EQUILIBRIUM ITERATION     2


 AVERAGE FORCE                       11.7       TIME AVG. FORCE        2.43    
 LARGEST RESIDUAL FORCE            -3.153E-05   AT NODE          3   DOF  1
   INSTANCE: PANEL-1                                                                         
 LARGEST INCREMENT OF DISP.         2.873E-06   AT NODE        757   DOF  1
   INSTANCE: PANEL-1                                                                         
 LARGEST CORRECTION TO DISP.        4.104E-09   AT NODE       6234   DOF  3
   INSTANCE: PANEL-1                                                                         
          THE FORCE     EQUILIBRIUM EQUATIONS HAVE CONVERGED

 AVERAGE MOMENT                     4.035E-03   TIME AVG. MOMENT      8.071E-04
 LARGEST RESIDUAL MOMENT            4.716E-08   AT NODE        157   DOF  5
   INSTANCE: PANEL-1                                                                         
 LARGEST INCREMENT OF ROTATION     -8.888E-05   AT NODE          1   DOF  5
   INSTANCE: PANEL-1                                                                         
 LARGEST CORRECTION TO ROTATION     6.720E-08   AT NODE          1   DOF  5
   INSTANCE: PANEL-1                                                                         
          THE MOMENT    EQUILIBRIUM EQUATIONS HAVE CONVERGED
          ARC LENGTH INCREMENT MAY NOW INCREASE TO    0.292    

 ITERATION SUMMARY FOR THE INCREMENT:   2 TOTAL ITERATIONS, OF WHICH
   0 ARE SEVERE DISCONTINUITY ITERATIONS AND  2 ARE EQUILIBRIUM ITERATIONS.


                                INCREMENT    15 SUMMARY


     CURRENT LOAD PROPORTIONALITY FACTOR         8.3093E-03
     TOTAL ARC LENGTH   0.583    , INCREMENT OF ARC LENGTH   0.195    


  INCREMENT    16 STARTS. ATTEMPT NUMBER  1

  NUMBER OF EQUATIONS =    141929     NUMBER OF RHS =    2
  NUMBER OF FLOATING PT. OPERATIONS =  1.47E+10

     CHECK POINT   START OF SOLVER    

     CHECK POINT  END OF SOLVER       

       ELAPSED USER TIME (SEC)      =  0.50000    
       ELAPSED SYSTEM TIME (SEC)    =   0.0000    
       ELAPSED TOTAL CPU TIME (SEC) =  0.50000    
       ELAPSED WALLCLOCK TIME (SEC) =          1

               CONVERGENCE CHECKS FOR EQUILIBRIUM ITERATION     1


 AVERAGE FORCE                       17.2       TIME AVG. FORCE        3.35    
 LARGEST RESIDUAL FORCE             0.125       AT NODE        756   DOF  3
   INSTANCE: PANEL-1                                                                         
 LARGEST INCREMENT OF DISP.         4.306E-06   AT NODE        757   DOF  1
   INSTANCE: PANEL-1                                                                         
 LARGEST CORRECTION TO DISP.        4.306E-06   AT NODE        757   DOF  1
   INSTANCE: PANEL-1                                                                         
          FORCE     EQUILIBRIUM NOT ACHIEVED WITHIN TOLERANCE.

 AVERAGE MOMENT                     6.008E-03   TIME AVG. MOMENT      1.132E-03
 LARGEST RESIDUAL MOMENT           -1.050E-03   AT NODE        757   DOF  5
   INSTANCE: PANEL-1                                                                         
 LARGEST INCREMENT OF ROTATION     -1.332E-04   AT NODE          1   DOF  5
   INSTANCE: PANEL-1                                                                         
 LARGEST CORRECTION TO ROTATION    -1.332E-04   AT NODE          1   DOF  5
   INSTANCE: PANEL-1                                                                         
          MOMENT    EQUILIBRIUM NOT ACHIEVED WITHIN TOLERANCE.

  NUMBER OF EQUATIONS =    141929     NUMBER OF RHS =    2
  NUMBER OF FLOATING PT. OPERATIONS =  1.47E+10

     CHECK POINT   START OF SOLVER    

     CHECK POINT  END OF SOLVER       

       ELAPSED USER TIME (SEC)      =  0.50000    
       ELAPSED SYSTEM TIME (SEC)    =   0.0000    
       ELAPSED TOTAL CPU TIME (SEC) =  0.50000    
       ELAPSED WALLCLOCK TIME (SEC) =          1

               CONVERGENCE CHECKS FOR EQUILIBRIUM ITERATION     2


 AVERAGE FORCE                       17.2       TIME AVG. FORCE        3.35    
 LARGEST RESIDUAL FORCE            -1.276E-05   AT NODE          3   DOF  1
   INSTANCE: PANEL-1                                                                         
 LARGEST INCREMENT OF DISP.         4.302E-06   AT NODE        757   DOF  1
   INSTANCE: PANEL-1                                                                         
 LARGEST CORRECTION TO DISP.        9.253E-09   AT NODE      17260   DOF  3
   INSTANCE: PANEL-1                                                                         
          THE FORCE     EQUILIBRIUM EQUATIONS HAVE CONVERGED

 AVERAGE MOMENT                     6.010E-03   TIME AVG. MOMENT      1.132E-03
 LARGEST RESIDUAL MOMENT           -1.643E-07   AT NODE          9   DOF  5
   INSTANCE: PANEL-1                                                                         
 LARGEST INCREMENT OF ROTATION     -1.331E-04   AT NODE          1   DOF  5
   INSTANCE: PANEL-1                                                                         
 LARGEST CORRECTION TO ROTATION     1.521E-07   AT NODE          1   DOF  5
   INSTANCE: PANEL-1                                                                         
          THE MOMENT    EQUILIBRIUM EQUATIONS HAVE CONVERGED
          ARC LENGTH INCREMENT MAY NOW INCREASE TO    0.438    

 ITERATION SUMMARY FOR THE INCREMENT:   2 TOTAL ITERATIONS, OF WHICH
   0 ARE SEVERE DISCONTINUITY ITERATIONS AND  2 ARE EQUILIBRIUM ITERATIONS.


                                INCREMENT    16 SUMMARY


     CURRENT LOAD PROPORTIONALITY FACTOR         1.2458E-02
     TOTAL ARC LENGTH   0.875    , INCREMENT OF ARC LENGTH   0.292    


  INCREMENT    17 STARTS. ATTEMPT NUMBER  1

  NUMBER OF EQUATIONS =    141929     NUMBER OF RHS =    2
  NUMBER OF FLOATING PT. OPERATIONS =  1.47E+10

     CHECK POINT   START OF SOLVER    

     CHECK POINT  END OF SOLVER       

       ELAPSED USER TIME (SEC)      =  0.50000    
       ELAPSED SYSTEM TIME (SEC)    =   0.0000    
       ELAPSED TOTAL CPU TIME (SEC) =  0.50000    
       ELAPSED WALLCLOCK TIME (SEC) =          1

               CONVERGENCE CHECKS FOR EQUILIBRIUM ITERATION     1


 AVERAGE FORCE                       25.5       TIME AVG. FORCE        4.65    
 LARGEST RESIDUAL FORCE             0.279       AT NODE        757   DOF  3
   INSTANCE: PANEL-1                                                                         
 LARGEST INCREMENT OF DISP.         6.446E-06   AT NODE        757   DOF  1
   INSTANCE: PANEL-1                                                                         
 LARGEST CORRECTION TO DISP.        6.446E-06   AT NODE        757   DOF  1
   INSTANCE: PANEL-1                                                                         
          FORCE     EQUILIBRIUM NOT ACHIEVED WITHIN TOLERANCE.

 AVERAGE MOMENT                     8.920E-03   TIME AVG. MOMENT      1.590E-03
 LARGEST RESIDUAL MOMENT            2.352E-03   AT NODE        756   DOF  5
   INSTANCE: PANEL-1                                                                         
 LARGEST INCREMENT OF ROTATION     -1.993E-04   AT NODE          1   DOF  5
   INSTANCE: PANEL-1                                                                         
 LARGEST CORRECTION TO ROTATION    -1.993E-04   AT NODE          1   DOF  5
   INSTANCE: PANEL-1                                                                         
          MOMENT    EQUILIBRIUM NOT ACHIEVED WITHIN TOLERANCE.

  NUMBER OF EQUATIONS =    141929     NUMBER OF RHS =    2
  NUMBER OF FLOATING PT. OPERATIONS =  1.47E+10

     CHECK POINT   START OF SOLVER    

     CHECK POINT  END OF SOLVER       

       ELAPSED USER TIME (SEC)      =  0.60000    
       ELAPSED SYSTEM TIME (SEC)    =   0.0000    
       ELAPSED TOTAL CPU TIME (SEC) =  0.60000    
       ELAPSED WALLCLOCK TIME (SEC) =          1

               CONVERGENCE CHECKS FOR EQUILIBRIUM ITERATION     2


 AVERAGE FORCE                       25.5       TIME AVG. FORCE        4.65    
 LARGEST RESIDUAL FORCE             5.886E-05   AT NODE          4   DOF  1
   INSTANCE: PANEL-1                                                                         
 LARGEST INCREMENT OF DISP.         6.436E-06   AT NODE        757   DOF  1
   INSTANCE: PANEL-1                                                                         
 LARGEST CORRECTION TO DISP.        2.089E-08   AT NODE      17260   DOF  3
   INSTANCE: PANEL-1                                                                         
          THE FORCE     EQUILIBRIUM EQUATIONS HAVE CONVERGED

 AVERAGE MOMENT                     8.924E-03   TIME AVG. MOMENT      1.591E-03
 LARGEST RESIDUAL MOMENT            5.573E-07   AT NODE        157   DOF  5
   INSTANCE: PANEL-1                                                                         
 LARGEST INCREMENT OF ROTATION     -1.990E-04   AT NODE          1   DOF  5
   INSTANCE: PANEL-1                                                                         
 LARGEST CORRECTION TO ROTATION     3.454E-07   AT NODE          1   DOF  5
   INSTANCE: PANEL-1                                                                         
          THE MOMENT    EQUILIBRIUM EQUATIONS HAVE CONVERGED
          ARC LENGTH INCREMENT MAY NOW INCREASE TO    0.657    

 ITERATION SUMMARY FOR THE INCREMENT:   2 TOTAL ITERATIONS, OF WHICH
   0 ARE SEVERE DISCONTINUITY ITERATIONS AND  2 ARE EQUILIBRIUM ITERATIONS.


                                INCREMENT    17 SUMMARY


     CURRENT LOAD PROPORTIONALITY FACTOR         1.8665E-02
     TOTAL ARC LENGTH    1.31    , INCREMENT OF ARC LENGTH   0.438    


  INCREMENT    18 STARTS. ATTEMPT NUMBER  1

  NUMBER OF EQUATIONS =    141929     NUMBER OF RHS =    2
  NUMBER OF FLOATING PT. OPERATIONS =  1.47E+10

     CHECK POINT   START OF SOLVER    

     CHECK POINT  END OF SOLVER       

       ELAPSED USER TIME (SEC)      =  0.60000    
       ELAPSED SYSTEM TIME (SEC)    =   0.0000    
       ELAPSED TOTAL CPU TIME (SEC) =  0.60000    
       ELAPSED WALLCLOCK TIME (SEC) =          1

               CONVERGENCE CHECKS FOR EQUILIBRIUM ITERATION     1


 AVERAGE FORCE                       37.7       TIME AVG. FORCE        6.49    
 LARGEST RESIDUAL FORCE             0.625       AT NODE        757   DOF  3
   INSTANCE: PANEL-1                                                                         
 LARGEST INCREMENT OF DISP.         9.638E-06   AT NODE        757   DOF  1
   INSTANCE: PANEL-1                                                                         
 LARGEST CORRECTION TO DISP.        9.638E-06   AT NODE        757   DOF  1
   INSTANCE: PANEL-1                                                                         
          FORCE     EQUILIBRIUM NOT ACHIEVED WITHIN TOLERANCE.

 AVERAGE MOMENT                     1.327E-02   TIME AVG. MOMENT      2.240E-03
 LARGEST RESIDUAL MOMENT            5.258E-03   AT NODE        756   DOF  5
   INSTANCE: PANEL-1                                                                         
 LARGEST INCREMENT OF ROTATION     -2.979E-04   AT NODE          1   DOF  5
   INSTANCE: PANEL-1                                                                         
 LARGEST CORRECTION TO ROTATION    -2.979E-04   AT NODE          1   DOF  5
   INSTANCE: PANEL-1                                                                         
          MOMENT    EQUILIBRIUM NOT ACHIEVED WITHIN TOLERANCE.

  NUMBER OF EQUATIONS =    141929     NUMBER OF RHS =    2
  NUMBER OF FLOATING PT. OPERATIONS =  1.47E+10

     CHECK POINT   START OF SOLVER    

     CHECK POINT  END OF SOLVER       

       ELAPSED USER TIME (SEC)      =  0.50000    
       ELAPSED SYSTEM TIME (SEC)    =   0.0000    
       ELAPSED TOTAL CPU TIME (SEC) =  0.50000    
       ELAPSED WALLCLOCK TIME (SEC) =          1

               CONVERGENCE CHECKS FOR EQUILIBRIUM ITERATION     2


 AVERAGE FORCE                       37.7       TIME AVG. FORCE        6.49    
 LARGEST RESIDUAL FORCE            -8.313E-05   AT NODE          3   DOF  1
   INSTANCE: PANEL-1                                                                         
 LARGEST INCREMENT OF DISP.         9.614E-06   AT NODE        757   DOF  1
   INSTANCE: PANEL-1                                                                         
 LARGEST CORRECTION TO DISP.        4.720E-08   AT NODE      17260   DOF  3
   INSTANCE: PANEL-1                                                                         
          THE FORCE     EQUILIBRIUM EQUATIONS HAVE CONVERGED

 AVERAGE MOMENT                     1.328E-02   TIME AVG. MOMENT      2.240E-03
 LARGEST RESIDUAL MOMENT            1.906E-06   AT NODE        157   DOF  5
   INSTANCE: PANEL-1                                                                         
 LARGEST INCREMENT OF ROTATION     -2.972E-04   AT NODE          1   DOF  5
   INSTANCE: PANEL-1                                                                         
 LARGEST CORRECTION TO ROTATION     7.878E-07   AT NODE          1   DOF  5
   INSTANCE: PANEL-1                                                                         
          THE MOMENT    EQUILIBRIUM EQUATIONS HAVE CONVERGED
          ARC LENGTH INCREMENT MAY NOW INCREASE TO    0.985    

 ITERATION SUMMARY FOR THE INCREMENT:   2 TOTAL ITERATIONS, OF WHICH
   0 ARE SEVERE DISCONTINUITY ITERATIONS AND  2 ARE EQUILIBRIUM ITERATIONS.


                                INCREMENT    18 SUMMARY


     CURRENT LOAD PROPORTIONALITY FACTOR         2.7937E-02
     TOTAL ARC LENGTH    1.97    , INCREMENT OF ARC LENGTH   0.657    


  INCREMENT    19 STARTS. ATTEMPT NUMBER  1

  NUMBER OF EQUATIONS =    141929     NUMBER OF RHS =    2
  NUMBER OF FLOATING PT. OPERATIONS =  1.47E+10

     CHECK POINT   START OF SOLVER    

     CHECK POINT  END OF SOLVER       

       ELAPSED USER TIME (SEC)      =  0.50000    
       ELAPSED SYSTEM TIME (SEC)    =   0.0000    
       ELAPSED TOTAL CPU TIME (SEC) =  0.50000    
       ELAPSED WALLCLOCK TIME (SEC) =          1

               CONVERGENCE CHECKS FOR EQUILIBRIUM ITERATION     1


 AVERAGE FORCE                       55.8       TIME AVG. FORCE        9.08    
 LARGEST RESIDUAL FORCE              1.39       AT NODE        757   DOF  3
   INSTANCE: PANEL-1                                                                         
 LARGEST INCREMENT OF DISP.         1.439E-05   AT NODE        757   DOF  1
   INSTANCE: PANEL-1                                                                         
 LARGEST CORRECTION TO DISP.        1.439E-05   AT NODE        757   DOF  1
   INSTANCE: PANEL-1                                                                         
          FORCE     EQUILIBRIUM NOT ACHIEVED WITHIN TOLERANCE.

 AVERAGE MOMENT                     1.976E-02   TIME AVG. MOMENT      3.162E-03
 LARGEST RESIDUAL MOMENT            1.172E-02   AT NODE        756   DOF  5
   INSTANCE: PANEL-1                                                                         
 LARGEST INCREMENT OF ROTATION     -4.445E-04   AT NODE          1   DOF  5
[...]

  NUMBER OF EQUATIONS =    141929     NUMBER OF RHS =    2
  NUMBER OF FLOATING PT. OPERATIONS =  1.47E+10

     CHECK POINT   START OF SOLVER    

     CHECK POINT  END OF SOLVER       

       ELAPSED USER TIME (SEC)      =  0.90000    
       ELAPSED SYSTEM TIME (SEC)    =   0.0000    
       ELAPSED TOTAL CPU TIME (SEC) =  0.90000    
       ELAPSED WALLCLOCK TIME (SEC) =          2
 

 ***WARNING: THE SYSTEM MATRIX HAS 2 NEGATIVE EIGENVALUES.
             EXPLANATIONS ARE SUGGESTED AFTER THE FIRST OCCURRENCE OF THIS MESSAGE.

               CONVERGENCE CHECKS FOR EQUILIBRIUM ITERATION     2


 AVERAGE FORCE                      8.361E+03   TIME AVG. FORCE       2.132E+03
 LARGEST RESIDUAL FORCE              154.       AT NODE        600   DOF  2
   INSTANCE: PANEL-1                                                                         
 LARGEST INCREMENT OF DISP.        -5.181E-04   AT NODE      21103   DOF  3
   INSTANCE: PANEL-1                                                                         
 LARGEST CORRECTION TO DISP.       -4.082E-04   AT NODE      21103   DOF  3
   INSTANCE: PANEL-1                                                                         
          FORCE     EQUILIBRIUM NOT ACHIEVED WITHIN TOLERANCE.

 AVERAGE MOMENT                      25.2       TIME AVG. MOMENT       5.95    
 LARGEST RESIDUAL MOMENT           -2.423E-02   AT NODE          9   DOF  5
   INSTANCE: PANEL-1                                                                         
 LARGEST INCREMENT OF ROTATION     -3.431E-03   AT NODE        600   DOF  4
   INSTANCE: PANEL-1                                                                         
 LARGEST CORRECTION TO ROTATION    -2.627E-03   AT NODE        600   DOF  4
   INSTANCE: PANEL-1                                                                         
          ROTATION CORRECTION TOO LARGE COMPARED TO ROTATION INCREMENT

  NUMBER OF EQUATIONS =    141929     NUMBER OF RHS =    2
  NUMBER OF FLOATING PT. OPERATIONS =  1.47E+10

     CHECK POINT   START OF SOLVER    

     CHECK POINT  END OF SOLVER       

       ELAPSED USER TIME (SEC)      =   1.2000    
       ELAPSED SYSTEM TIME (SEC)    =  0.10000    
       ELAPSED TOTAL CPU TIME (SEC) =   1.3000    
       ELAPSED WALLCLOCK TIME (SEC) =          2
 

 ***WARNING: THE SYSTEM MATRIX HAS 2 NEGATIVE EIGENVALUES.
             EXPLANATIONS ARE SUGGESTED AFTER THE FIRST OCCURRENCE OF THIS MESSAGE.

               CONVERGENCE CHECKS FOR EQUILIBRIUM ITERATION     3


 AVERAGE FORCE                      8.352E+03   TIME AVG. FORCE       2.131E+03
 LARGEST RESIDUAL FORCE              44.8       AT NODE          3   DOF  1
   INSTANCE: PANEL-1                                                                         
 LARGEST INCREMENT OF DISP.        -4.830E-04   AT NODE      21103   DOF  3
   INSTANCE: PANEL-1                                                                         
 LARGEST CORRECTION TO DISP.       -1.019E-04   AT NODE      15884   DOF  3
   INSTANCE: PANEL-1                                                                         
          FORCE     EQUILIBRIUM NOT ACHIEVED WITHIN TOLERANCE.

 AVERAGE MOMENT                      25.1       TIME AVG. MOMENT       5.95    
 LARGEST RESIDUAL MOMENT            4.615E-02   AT NODE        157   DOF  5
   INSTANCE: PANEL-1                                                                         
 LARGEST INCREMENT OF ROTATION     -3.059E-03   AT NODE        599   DOF  4
   INSTANCE: PANEL-1                                                                         
 LARGEST CORRECTION TO ROTATION    -4.857E-04   AT NODE        649   DOF  4
   INSTANCE: PANEL-1                                                                         
          MOMENT    EQUILIBRIUM NOT ACHIEVED WITHIN TOLERANCE.

  NUMBER OF EQUATIONS =    141929     NUMBER OF RHS =    2
  NUMBER OF FLOATING PT. OPERATIONS =  1.47E+10

     CHECK POINT   START OF SOLVER    

     CHECK POINT  END OF SOLVER       

       ELAPSED USER TIME (SEC)      =   1.2000    
       ELAPSED SYSTEM TIME (SEC)    =  0.10000    
       ELAPSED TOTAL CPU TIME (SEC) =   1.3000    
       ELAPSED WALLCLOCK TIME (SEC) =          2
 

 ***WARNING: THE SYSTEM MATRIX HAS 2 NEGATIVE EIGENVALUES.
             EXPLANATIONS ARE SUGGESTED AFTER THE FIRST OCCURRENCE OF THIS MESSAGE.

               CONVERGENCE CHECKS FOR EQUILIBRIUM ITERATION     4


 AVERAGE FORCE                      8.352E+03   TIME AVG. FORCE       2.131E+03
 LARGEST RESIDUAL FORCE             8.540E-02   AT NODE        599   DOF  2
   INSTANCE: PANEL-1                                                                         
 LARGEST INCREMENT OF DISP.        -4.738E-04   AT NODE      21103   DOF  3
   INSTANCE: PANEL-1                                                                         
 LARGEST CORRECTION TO DISP.        9.247E-06   AT NODE      21253   DOF  3
   INSTANCE: PANEL-1                                                                         
 ESTIMATE OF DISP.    CORRECTION    1.762E-08
 FORCE     EQUILIB. ACCEPTED BASED ON SMALL RESIDUAL AND ESTIMATED CORRECTION

 AVERAGE MOMENT                      25.1       TIME AVG. MOMENT       5.95    
 LARGEST RESIDUAL MOMENT            2.350E-04   AT NODE        157   DOF  5
   INSTANCE: PANEL-1                                                                         
 LARGEST INCREMENT OF ROTATION     -2.997E-03   AT NODE        599   DOF  4
   INSTANCE: PANEL-1                                                                         
 LARGEST CORRECTION TO ROTATION     6.191E-05   AT NODE        599   DOF  4
   INSTANCE: PANEL-1                                                                         
 ESTIMATE OF ROTATION CORRECTION   -6.004E-07
 MOMENT    EQUILIB. ACCEPTED BASED ON SMALL RESIDUAL AND ESTIMATED CORRECTION
          ARC LENGTH INCREMENT MAY NOW INCREASE TO     14.4    

 ITERATION SUMMARY FOR THE INCREMENT:   4 TOTAL ITERATIONS, OF WHICH
   0 ARE SEVERE DISCONTINUITY ITERATIONS AND  4 ARE EQUILIBRIUM ITERATIONS.


                                INCREMENT    48 SUMMARY


     CURRENT LOAD PROPORTIONALITY FACTOR          4.367    
     TOTAL ARC LENGTH   6.778E+03, INCREMENT OF ARC LENGTH    9.60    


  INCREMENT    49 STARTS. ATTEMPT NUMBER  1

  NUMBER OF EQUATIONS =    141929     NUMBER OF RHS =    2
  NUMBER OF FLOATING PT. OPERATIONS =  1.47E+10

     CHECK POINT   START OF SOLVER    

     CHECK POINT  END OF SOLVER       

       ELAPSED USER TIME (SEC)      =   1.2000    
       ELAPSED SYSTEM TIME (SEC)    =   0.0000    
       ELAPSED TOTAL CPU TIME (SEC) =   1.2000    
       ELAPSED WALLCLOCK TIME (SEC) =          2
 

 ***WARNING: THE SYSTEM MATRIX HAS 2 NEGATIVE EIGENVALUES.
             EXPLANATIONS ARE SUGGESTED AFTER THE FIRST OCCURRENCE OF THIS MESSAGE.

               CONVERGENCE CHECKS FOR EQUILIBRIUM ITERATION     1


 AVERAGE FORCE                      8.347E+03   TIME AVG. FORCE       2.258E+03
 LARGEST RESIDUAL FORCE             -38.9       AT NODE          4   DOF  1
   INSTANCE: PANEL-1                                                                         
 LARGEST INCREMENT OF DISP.        -1.785E-04   AT NODE       9780   DOF  3
   INSTANCE: PANEL-1                                                                         
 LARGEST CORRECTION TO DISP.       -1.785E-04   AT NODE       9780   DOF  3
   INSTANCE: PANEL-1                                                                         
          FORCE     EQUILIBRIUM NOT ACHIEVED WITHIN TOLERANCE.

 AVERAGE MOMENT                      25.1       TIME AVG. MOMENT       6.34    
 LARGEST RESIDUAL MOMENT           -4.454E-02   AT NODE          9   DOF  5
   INSTANCE: PANEL-1                                                                         
 LARGEST INCREMENT OF ROTATION      1.031E-03   AT NODE        302   DOF  4
   INSTANCE: PANEL-1                                                                         
 LARGEST CORRECTION TO ROTATION     1.031E-03   AT NODE        302   DOF  4
   INSTANCE: PANEL-1                                                                         
          MOMENT    EQUILIBRIUM NOT ACHIEVED WITHIN TOLERANCE.

  NUMBER OF EQUATIONS =    141929     NUMBER OF RHS =    2
  NUMBER OF FLOATING PT. OPERATIONS =  1.47E+10

     CHECK POINT   START OF SOLVER    

     CHECK POINT  END OF SOLVER       

       ELAPSED USER TIME (SEC)      =   1.1000    
       ELAPSED SYSTEM TIME (SEC)    =   0.0000    
       ELAPSED TOTAL CPU TIME (SEC) =   1.1000    
       ELAPSED WALLCLOCK TIME (SEC) =          2
 

 ***WARNING: THE SYSTEM MATRIX HAS 2 NEGATIVE EIGENVALUES.
             EXPLANATIONS ARE SUGGESTED AFTER THE FIRST OCCURRENCE OF THIS MESSAGE.

               CONVERGENCE CHECKS FOR EQUILIBRIUM ITERATION     2


 AVERAGE FORCE                      8.347E+03   TIME AVG. FORCE       2.258E+03
 LARGEST RESIDUAL FORCE             0.171       AT NODE        600   DOF  2
   INSTANCE: PANEL-1                                                                         
 LARGEST INCREMENT OF DISP.        -1.663E-04   AT NODE       9781   DOF  3
   INSTANCE: PANEL-1                                                                         
 LARGEST CORRECTION TO DISP.        1.298E-05   AT NODE      21252   DOF  3
   INSTANCE: PANEL-1                                                                         
 ESTIMATE OF DISP.    CORRECTION   -5.697E-08
 FORCE     EQUILIB. ACCEPTED BASED ON SMALL RESIDUAL AND ESTIMATED CORRECTION

 AVERAGE MOMENT                      25.1       TIME AVG. MOMENT       6.34    
 LARGEST RESIDUAL MOMENT           -3.508E-04   AT NODE          9   DOF  5
   INSTANCE: PANEL-1                                                                         
 LARGEST INCREMENT OF ROTATION      9.473E-04   AT NODE        301   DOF  4
   INSTANCE: PANEL-1                                                                         
 LARGEST CORRECTION TO ROTATION     8.750E-05   AT NODE        600   DOF  4
   INSTANCE: PANEL-1                                                                         
          ROTATION CORRECTION TOO LARGE COMPARED TO ROTATION INCREMENT

  NUMBER OF EQUATIONS =    141929     NUMBER OF RHS =    2
  NUMBER OF FLOATING PT. OPERATIONS =  1.47E+10

     CHECK POINT   START OF SOLVER    

     CHECK POINT  END OF SOLVER       

       ELAPSED USER TIME (SEC)      =   1.3000    
       ELAPSED SYSTEM TIME (SEC)    =   0.0000    
       ELAPSED TOTAL CPU TIME (SEC) =   1.3000    
       ELAPSED WALLCLOCK TIME (SEC) =          2
 

 ***WARNING: THE SYSTEM MATRIX HAS 2 NEGATIVE EIGENVALUES.
             EXPLANATIONS ARE SUGGESTED AFTER THE FIRST OCCURRENCE OF THIS MESSAGE.

               CONVERGENCE CHECKS FOR EQUILIBRIUM ITERATION     3


 AVERAGE FORCE                      8.347E+03   TIME AVG. FORCE       2.258E+03
 LARGEST RESIDUAL FORCE             2.059E-04   AT NODE          4   DOF  1
   INSTANCE: PANEL-1                                                                         
 LARGEST INCREMENT OF DISP.        -1.662E-04   AT NODE       9781   DOF  3
   INSTANCE: PANEL-1                                                                         
 LARGEST CORRECTION TO DISP.        1.062E-07   AT NODE      21252   DOF  3
   INSTANCE: PANEL-1                                                                         
          THE FORCE     EQUILIBRIUM EQUATIONS HAVE CONVERGED

 AVERAGE MOMENT                      25.1       TIME AVG. MOMENT       6.34    
 LARGEST RESIDUAL MOMENT           -2.652E-06   AT NODE          9   DOF  5
   INSTANCE: PANEL-1                                                                         
 LARGEST INCREMENT OF ROTATION      9.466E-04   AT NODE        301   DOF  4
   INSTANCE: PANEL-1                                                                         
 LARGEST CORRECTION TO ROTATION     7.238E-07   AT NODE        600   DOF  4
   INSTANCE: PANEL-1                                                                         
          THE MOMENT    EQUILIBRIUM EQUATIONS HAVE CONVERGED
          ARC LENGTH INCREMENT MAY NOW INCREASE TO     21.6    

 ITERATION SUMMARY FOR THE INCREMENT:   3 TOTAL ITERATIONS, OF WHICH
   0 ARE SEVERE DISCONTINUITY ITERATIONS AND  3 ARE EQUILIBRIUM ITERATIONS.


                                INCREMENT    49 SUMMARY


     CURRENT LOAD PROPORTIONALITY FACTOR          4.363    
     TOTAL ARC LENGTH   6.792E+03, INCREMENT OF ARC LENGTH    14.4    


  INCREMENT    50 STARTS. ATTEMPT NUMBER  1

  NUMBER OF EQUATIONS =    141929     NUMBER OF RHS =    2
  NUMBER OF FLOATING PT. OPERATIONS =  1.47E+10

     CHECK POINT   START OF SOLVER    

     CHECK POINT  END OF SOLVER       

       ELAPSED USER TIME (SEC)      =   1.3000    
       ELAPSED SYSTEM TIME (SEC)    =   0.0000    
       ELAPSED TOTAL CPU TIME (SEC) =   1.3000    
       ELAPSED WALLCLOCK TIME (SEC) =          1
 

 ***WARNING: THE SYSTEM MATRIX HAS 2 NEGATIVE EIGENVALUES.
             EXPLANATIONS ARE SUGGESTED AFTER THE FIRST OCCURRENCE OF THIS MESSAGE.

               CONVERGENCE CHECKS FOR EQUILIBRIUM ITERATION     1


 AVERAGE FORCE                      8.340E+03   TIME AVG. FORCE       2.380E+03
 LARGEST RESIDUAL FORCE             -93.5       AT NODE          4   DOF  1
   INSTANCE: PANEL-1                                                                         
 LARGEST INCREMENT OF DISP.        -2.334E-04   AT NODE       9781   DOF  3
   INSTANCE: PANEL-1                                                                         
 LARGEST CORRECTION TO DISP.       -2.334E-04   AT NODE       9781   DOF  3
   INSTANCE: PANEL-1                                                                         
          FORCE     EQUILIBRIUM NOT ACHIEVED WITHIN TOLERANCE.

 AVERAGE MOMENT                      25.1       TIME AVG. MOMENT       6.72    
 LARGEST RESIDUAL MOMENT           -6.784E-02   AT NODE          9   DOF  5
   INSTANCE: PANEL-1                                                                         
 LARGEST INCREMENT OF ROTATION      1.308E-03   AT NODE        301   DOF  4
   INSTANCE: PANEL-1                                                                         
 LARGEST CORRECTION TO ROTATION     1.308E-03   AT NODE        301   DOF  4
   INSTANCE: PANEL-1                                                                         
          MOMENT    EQUILIBRIUM NOT ACHIEVED WITHIN TOLERANCE.

  NUMBER OF EQUATIONS =    141929     NUMBER OF RHS =    2
  NUMBER OF FLOATING PT. OPERATIONS =  1.47E+10

     CHECK POINT   START OF SOLVER    

     CHECK POINT  END OF SOLVER       

       ELAPSED USER TIME (SEC)      =   1.4000    
       ELAPSED SYSTEM TIME (SEC)    =  0.10000    
       ELAPSED TOTAL CPU TIME (SEC) =   1.5000    
       ELAPSED WALLCLOCK TIME (SEC) =          2
 

 ***WARNING: THE SYSTEM MATRIX HAS 2 NEGATIVE EIGENVALUES.
             EXPLANATIONS ARE SUGGESTED AFTER THE FIRST OCCURRENCE OF THIS MESSAGE.

               CONVERGENCE CHECKS FOR EQUILIBRIUM ITERATION     2


 AVERAGE FORCE                      8.340E+03   TIME AVG. FORCE       2.380E+03
 LARGEST RESIDUAL FORCE            -0.213       AT NODE        303   DOF  2
   INSTANCE: PANEL-1                                                                         
 LARGEST INCREMENT OF DISP.        -2.204E-04   AT NODE       9632   DOF  3
   INSTANCE: PANEL-1                                                                         
 LARGEST CORRECTION TO DISP.        1.447E-05   AT NODE      10225   DOF  3
   INSTANCE: PANEL-1                                                                         
 ESTIMATE OF DISP.    CORRECTION    3.300E-08
 FORCE     EQUILIB. ACCEPTED BASED ON SMALL RESIDUAL AND ESTIMATED CORRECTION

 AVERAGE MOMENT                      25.1       TIME AVG. MOMENT       6.72    
 LARGEST RESIDUAL MOMENT           -2.787E-04   AT NODE        751   DOF  6
   INSTANCE: PANEL-1                                                                         
 LARGEST INCREMENT OF ROTATION      1.215E-03   AT NODE        301   DOF  4
   INSTANCE: PANEL-1                                                                         
 LARGEST CORRECTION TO ROTATION    -9.770E-05   AT NODE        303   DOF  4
   INSTANCE: PANEL-1                                                                         
          ROTATION CORRECTION TOO LARGE COMPARED TO ROTATION INCREMENT

  NUMBER OF EQUATIONS =    141929     NUMBER OF RHS =    2
  NUMBER OF FLOATING PT. OPERATIONS =  1.47E+10

     CHECK POINT   START OF SOLVER    

     CHECK POINT  END OF SOLVER       

       ELAPSED USER TIME (SEC)      =   1.1000    
       ELAPSED SYSTEM TIME (SEC)    =   0.0000    
       ELAPSED TOTAL CPU TIME (SEC) =   1.1000    
       ELAPSED WALLCLOCK TIME (SEC) =          2
 

 ***WARNING: THE SYSTEM MATRIX HAS 2 NEGATIVE EIGENVALUES.
             EXPLANATIONS ARE SUGGESTED AFTER THE FIRST OCCURRENCE OF THIS MESSAGE.

               CONVERGENCE CHECKS FOR EQUILIBRIUM ITERATION     3


 AVERAGE FORCE                      8.340E+03   TIME AVG. FORCE       2.380E+03
 LARGEST RESIDUAL FORCE             1.234E-04   AT NODE          4   DOF  1
   INSTANCE: PANEL-1                                                                         
 LARGEST INCREMENT OF DISP.        -2.204E-04   AT NODE       9632   DOF  3
   INSTANCE: PANEL-1                                                                         
 LARGEST CORRECTION TO DISP.        9.855E-09   AT NODE      10676   DOF  3
   INSTANCE: PANEL-1                                                                         
          THE FORCE     EQUILIBRIUM EQUATIONS HAVE CONVERGED

 AVERAGE MOMENT                      25.1       TIME AVG. MOMENT       6.72    
 LARGEST RESIDUAL MOMENT           -3.613E-06   AT NODE          1   DOF  5
   INSTANCE: PANEL-1                                                                         
 LARGEST INCREMENT OF ROTATION      1.215E-03   AT NODE        301   DOF  4
   INSTANCE: PANEL-1                                                                         
 LARGEST CORRECTION TO ROTATION    -9.284E-08   AT NODE        300   DOF  4
   INSTANCE: PANEL-1                                                                         
          THE MOMENT    EQUILIBRIUM EQUATIONS HAVE CONVERGED
          ARC LENGTH INCREMENT MAY NOW INCREASE TO     32.4    

 ITERATION SUMMARY FOR THE INCREMENT:   3 TOTAL ITERATIONS, OF WHICH
   0 ARE SEVERE DISCONTINUITY ITERATIONS AND  3 ARE EQUILIBRIUM ITERATIONS.


                                INCREMENT    50 SUMMARY


     CURRENT LOAD PROPORTIONALITY FACTOR          4.358    
     TOTAL ARC LENGTH   6.814E+03, INCREMENT OF ARC LENGTH    21.6    


     THE NUMBER OF INCS ON THE *STEP CARD HAS BEEN COMPLETED - THE STEP ENDS



     ANALYSIS SUMMARY:
     TOTAL OF         50  INCREMENTS
                       5  CUTBACKS IN AUTOMATIC INCREMENTATION
                     181  ITERATIONS INCLUDING CONTACT ITERATIONS IF PRESENT
                     181  PASSES THROUGH THE EQUATION SOLVER OF WHICH 
                     181  INVOLVE MATRIX DECOMPOSITION, INCLUDING
                       0  DECOMPOSITION(S) OF THE MASS MATRIX
                       1  REORDERING OF EQUATIONS TO MINIMIZE WAVEFRONT
                       0  ADDITIONAL RESIDUAL EVALUATIONS FOR LINE SEARCHES
                       0  ADDITIONAL OPERATOR EVALUATIONS FOR LINE SEARCHES
                       0  WARNING MESSAGES DURING USER INPUT PROCESSING
                      17  WARNING MESSAGES DURING ANALYSIS
                       0  ANALYSIS WARNINGS ARE NUMERICAL PROBLEM MESSAGES
                      17  ANALYSIS WARNINGS ARE NEGATIVE EIGENVALUE MESSAGES
                       0  ERROR MESSAGES



     JOB TIME SUMMARY
       USER TIME (SEC)      =   286.20    
       SYSTEM TIME (SEC)    =   7.6000    
       TOTAL CPU TIME (SEC) =   293.80    
       WALLCLOCK TIME (SEC) =        460
