 Abaqus/Standard 2020                  DATE 08-Sep-2025 TIME 19:38:44
 SUMMARY OF JOB INFORMATION:
 STEP  INC ATT SEVERE EQUIL TOTAL  TOTAL      STEP       INC OF       DOF    IF
               DISCON ITERS ITERS  TIME/    TIME/LPF    TIME/LPF    MONITOR RIKS
               ITERS               FREQ
   1     1   1     0     2     2             1.43e-05   1.429e-05             R
   1     2   1     0     2     2             2.86e-05   1.429e-05             R
   1     3   1     0     2     2             5.00e-05   2.143e-05             R
   1     4   1     0     2     2             8.21e-05   3.214e-05             R
   1     5   1     0     2     2             0.000130   4.821e-05             R
   1     6   1     0     2     2             0.000203   7.232e-05             R
   1     7   1     0     2     2             0.000311   0.0001085             R
   1     8   1     0     2     2             0.000474   0.0001627             R
   1     9   1     0     2     2             0.000718   0.0002440             R
   1    10   1     0     2     2             0.00108    0.0003660             R
   1    11   1     0     2     2             0.00163    0.0005488             R
   1    12   1     0     2     2             0.00246    0.0008230             R
   1    13   1     0     2     2             0.00369    0.001234              R
   1    14   1     0     2     2             0.00554    0.001849              R
   1    15   1     0     2     2             0.00831    0.002771              R
   1    16   1     0     2     2             0.0125     0.004149              R
   1    17   1     0     2     2             0.0187     0.006207              R
   1    18   1     0     2     2             0.0279     0.009272              R
   1    19   1     0     2     2             0.0418     0.01382               R
   1    20   1     0     3     3             0.0623     0.02053               R
   1    21   1     0     3     3             0.0926     0.03032               R
   1    22   1     0     3     3             0.137      0.04433               R
   1    23   1     0     3     3             0.201      0.06369               R
   1    24   1     0     3     3             0.289      0.08855               R
   1    25   1     0     3     3             0.405      0.1158                R
   1    26   1     0     4     4             0.541      0.1358                R
   1    27   1     0     4     4             0.678      0.1373                R
   1    28   1     0     4     4             0.800      0.1216                R
   1    29   1     0     3     3             0.903      0.1036                R
   1    30   1     0     3     3             1.00       0.09878               R
   1    31   1     0     3     3             1.12       0.1210                R
   1    32   1     0     4     4             1.31       0.1855                R
   1    33   1     0     4     4             1.59       0.2787                R
   1    34   1     0     5     5             1.89       0.3008                R
   1    35   1     0     5     5             2.08       0.1967                R
   1    36   1     0     4     4             2.25       0.1690                R
   1    37   1     0     4     4             2.42       0.1686                R
   1    38   1     0     5     5             2.69       0.2645                R
   1    39   1     0     5     5             2.96       0.2751                R
   1    40   1     0     5     5             3.25       0.2853                R
   1    41   1     0     5     5             3.54       0.2970                R
   1    42   1     0     4     4             3.85       0.3097                R
   1    43   1     0     4     4             4.18       0.3222                R
   1    44   1U    0     4     4             4.18      -0.3760                R
   1    44   2     0     4     4             4.36       0.1858                R
   1    45   1U    0     9     9             4.36       0.06531               R
   1    45   2U    0     6     6             4.36      -0.04250               R
   1    45   3U    0     4     4             4.36       0.03903               R
   1    45   4     0     3     3             4.36       0.001808              R
   1    46   1     0     3     3             4.37       0.002703              R
   1    47   1     0     3     3             4.37       0.003906              R
   1    48   1U    0     4     4             4.37       0.01069               R
   1    48   2     0     4     4             4.37      -0.003556              R
   1    49   1     0     3     3             4.36      -0.003474              R
   1    50   1     0     3     3             4.36      -0.005254              R
                          
 THE ANALYSIS HAS COMPLETED SUCCESSFULLY
