 Abaqus/Standard 2020                  DATE 09-Sep-2025 TIME 15:32:33
 SUMMARY OF JOB INFORMATION:
 STEP  INC ATT SEVERE EQUIL TOTAL  TOTAL      STEP       INC OF       DOF    IF
               DISCON ITERS ITERS  TIME/    TIME/LPF    TIME/LPF    MONITOR RIKS
               ITERS               FREQ
   1     1   1     0     2     2             0.000333   0.0003333             R
   1     2   1     0     2     2             0.000667   0.0003333             R
   1     3   1     0     2     2             0.00117    0.0005000             R
   1     4   1     0     2     2             0.00192    0.0007500             R
   1     5   1     0     2     2             0.00304    0.001125              R
   1     6   1     0     2     2             0.00473    0.001687              R
   1     7   1     0     2     2             0.00726    0.002531              R
   1     8   1     0     2     2             0.0111     0.003797              R
   1     9   1     0     2     2             0.0168     0.005695              R
   1    10   1     0     2     2             0.0253     0.008543              R
   1    11   1     0     2     2             0.0381     0.01281               R
   1    12   1     0     2     2             0.0573     0.01922               R
   1    13   1     0     2     2             0.0862     0.02883               R
   1    14   1     0     2     2             0.129      0.04324               R
   1    15   1     0     2     2             0.194      0.06485               R
   1    16   1     0     2     2             0.291      0.09725               R
   1    17   1     0     2     2             0.437      0.1458                R
   1    18   1     0     2     2             0.656      0.2186                R
   1    19   1     0     2     2             0.984      0.3277                R
   1    20   1     0     2     2             1.47       0.4908                R
   1    21   1     0     3     3             2.21       0.7342                R
   1    22   1     0     3     3             3.30       1.094                 R
   1    23   1     0     3     3             4.91       1.612                 R
   1    24   1     0     4     4             7.13       2.219                 R
   1    25   1     0     5     5             8.40       1.268                 R
   1    26   1     0     3     3             8.67       0.2722                R
   1    27   1     0     3     3             8.85       0.1794                R
   1    28   1     0     3     3             9.05       0.1973                R
   1    29   1     0     3     3             9.28       0.2246                R
   1    30   1     0     3     3             9.55       0.2710                R
   1    31   1     0     3     3             9.90       0.3499                R
   1    32   1     0     4     4             10.4       0.4722                R
   1    33   1     0     4     4             11.0       0.6228                R
   1    34   1     0     6     6             11.8       0.8040                R
   1    35   1     0     5     5             12.6       0.8097                R
   1    36   1     0     5     5             13.4       0.8324                R
   1    37   1     0     5     5             14.3       0.8192                R
   1    38   1     0     5     5             15.0       0.7700                R
   1    39   1     0     8     8             15.6       0.5580                R
   1    40   1     0     5     5             16.2       0.5808                R
   1    41   1     0     5     5             16.5       0.3844                R
   1    42   1     0     5     5             16.6       0.07762               R
   1    43   1U    0     5     5             16.6      -0.4020                R
   1    43   2     0     3     3             16.6      -0.04550               R
   1    44   1     0     4     4             16.5      -0.07691               R
   1    45   1U    0     5     5             16.5      -0.1817                R
   1    45   2     0     3     3             16.4      -0.05839               R
   1    46   1U    0     5     5             16.4      -0.1092                R
   1    46   2     0     4     4             16.4      -0.03804               R
   1    47   1U    0     9     9             16.4      -0.06440               R
   1    47   2U    0     7     7             16.4      -0.02515               R
   1    47   3     0     3     3             16.4      -0.002112              R
   1    48   1     0     3     3             16.4      -0.003188              R
   1    49   1     0     3     3             16.4      -0.004826              R
   1    50   1     0     4     4             16.4      -0.007330              R
                          
 THE ANALYSIS HAS COMPLETED SUCCESSFULLY
