1

   Abaqus 2020                                  Date 09-Sep-2025   Time 14:53:02
   For use by UNIVERSITY OF BRITISH COLUMBIA under license from Dassault Systemes or its subsidiary.

                                                                                 
                                                                                 
 STEP    1     INCREMENT     1     STEP TIME    0.00    


                        S T E P       1     S T A T I C   A N A L Y S I S


                                                                                          

     AUTOMATIC LOAD CONTROL WITH -
          A SUGGESTED INITIAL INCREMENT IN ARC LENGTH           1.000E-02
          AND A TOTAL ARC LENGTH SCALE FACTOR OF                 30.0    
          THE MINIMUM ARC LENGTH INCREMENT ALLOWED IS           1.000E-08
          THE MAXIMUM ARC LENGTH INCREMENT ALLOWED IS           1.000E+36

     LINEAR EQUATION SOLVER TYPE         DIRECT SPARSE

     MODIFIED RIKS METHOD IS USED - AMPLITUDE REFERENCES ARE IGNORED

 CONVERGENCE TOLERANCE PARAMETERS FOR FORCE    
     CRITERION FOR RESIDUAL FORCE     FOR A NONLINEAR PROBLEM          5.000E-03
     CRITERION FOR DISP.    CORRECTION IN A NONLINEAR PROBLEM          1.000E-02
     INITIAL VALUE OF TIME AVERAGE FORCE                               1.000E-02
     AVERAGE FORCE     IS TIME AVERAGE FORCE    
     ALTERNATE CRIT. FOR RESIDUAL FORCE     FOR A NONLINEAR PROBLEM    2.000E-02
     CRITERION FOR ZERO FORCE     RELATIVE TO TIME AVRG. FORCE         1.000E-05
     CRITERION FOR RESIDUAL FORCE     WHEN THERE IS ZERO FLUX          1.000E-05
     CRITERION FOR DISP.    CORRECTION WHEN THERE IS ZERO FLUX         1.000E-03
     CRITERION FOR RESIDUAL FORCE     FOR A LINEAR INCREMENT           1.000E-08
     FIELD CONVERSION RATIO                                             1.00    
     CRITERION FOR ZERO FORCE     REL. TO TIME AVRG. MAX. FORCE        1.000E-05
     CRITERION FOR ZERO DISP.    RELATIVE TO CHARACTERISTIC LENGTH     1.000E-08

 CONVERGENCE TOLERANCE PARAMETERS FOR MOMENT   
     CRITERION FOR RESIDUAL MOMENT    FOR A NONLINEAR PROBLEM          5.000E-03
     CRITERION FOR ROTATION CORRECTION IN A NONLINEAR PROBLEM          1.000E-02
     INITIAL VALUE OF TIME AVERAGE MOMENT                              1.000E-02
     AVERAGE MOMENT    IS TIME AVERAGE MOMENT   
     ALTERNATE CRIT. FOR RESIDUAL MOMENT    FOR A NONLINEAR PROBLEM    2.000E-02
     CRITERION FOR ZERO MOMENT    RELATIVE TO TIME AVRG. MOMENT        1.000E-05
     CRITERION FOR RESIDUAL MOMENT    WHEN THERE IS ZERO FLUX          1.000E-05
     CRITERION FOR ROTATION CORRECTION WHEN THERE IS ZERO FLUX         1.000E-03
     CRITERION FOR RESIDUAL MOMENT    FOR A LINEAR INCREMENT           1.000E-08
     FIELD CONVERSION RATIO                                             1.00    
     CRITERION FOR ZERO MOMENT    REL. TO TIME AVRG. MAX. MOMENT       1.000E-05

     VOLUMETRIC STRAIN COMPATIBILITY TOLERANCE FOR HYBRID SOLIDS       1.000E-05
     AXIAL STRAIN COMPATIBILITY TOLERANCE FOR HYBRID BEAMS             1.000E-05
     TRANS. SHEAR STRAIN COMPATIBILITY TOLERANCE FOR HYBRID BEAMS      1.000E-05
     SOFT CONTACT CONSTRAINT COMPATIBILITY TOLERANCE FOR P>P0          5.000E-03
     SOFT CONTACT CONSTRAINT COMPATIBILITY TOLERANCE FOR P=0.0         0.100    
     CONTACT FORCE ERROR TOLERANCE FOR CONVERT SDI=YES                 1.00    
     DISPLACEMENT COMPATIBILITY TOLERANCE FOR DCOUP ELEMENTS           1.000E-05
     ROTATION COMPATIBILITY TOLERANCE FOR DCOUP ELEMENTS               1.000E-05

 EQUILIBRIUM WILL BE CHECKED FOR SEVERE DISCONTINUITY ITERATIONS

 TIME INCREMENTATION CONTROL PARAMETERS:
     FIRST EQUILIBRIUM ITERATION FOR CONSECUTIVE DIVERGENCE CHECK              4
     EQUILIBRIUM ITERATION AT WHICH LOG. CONVERGENCE RATE CHECK BEGINS         8
     EQUILIBRIUM ITERATION AFTER WHICH ALTERNATE RESIDUAL IS USED              9
     MAXIMUM EQUILIBRIUM ITERATIONS ALLOWED                                   16
     EQUILIBRIUM ITERATION COUNT FOR CUT-BACK IN NEXT INCREMENT               10
     MAXIMUM EQUILIB. ITERS IN TWO INCREMENTS FOR TIME INCREMENT INCREASE      4
     MAXIMUM ITERATIONS FOR SEVERE DISCONTINUITIES                            50
     MAXIMUM ATTEMPTS ALLOWED IN AN INCREMENT                                  5
     MAXIMUM DISCON. ITERS IN TWO INCREMENTS FOR TIME INCREMENT INCREASE      50
     MAXIMUM CONTACT AUGMENTATIONS FOR *SURFACE BEHAVIOR,AUGMENTED LAGRANGE   50
     CUT-BACK FACTOR AFTER DIVERGENCE                                 0.2500    
     CUT-BACK FACTOR FOR TOO SLOW CONVERGENCE                         0.5000    
     CUT-BACK FACTOR AFTER TOO MANY EQUILIBRIUM ITERATIONS            0.7500    
     CUT-BACK FACTOR AFTER TOO MANY SEVERE DISCONTINUITY ITERATIONS   0.2500    
     CUT-BACK FACTOR AFTER PROBLEMS IN ELEMENT ASSEMBLY               0.2500    
     INCREASE FACTOR AFTER TWO INCREMENTS THAT CONVERGE QUICKLY        1.500    
     MAX. TIME INCREMENT INCREASE FACTOR ALLOWED                       1.500    
     MAX. TIME INCREMENT INCREASE FACTOR ALLOWED (DYNAMICS)            1.250    
     MAX. TIME INCREMENT INCREASE FACTOR ALLOWED (DIFFUSION)           2.000    
     MINIMUM TIME INCREMENT RATIO FOR EXTRAPOLATION TO OCCUR          0.1000    
     MAX. RATIO OF TIME INCREMENT TO STABILITY LIMIT                   1.000    
     FRACTION OF STABILITY LIMIT FOR NEW TIME INCREMENT               0.9500    
     TIME INCREMENT INCREASE FACTOR BEFORE A TIME POINT                1.000    
     GLOBAL STABILIZATION CONTROL IS NOT USED

          PRINT OF INCREMENT NUMBER, TIME, ETC., EVERY    1  INCREMENTS

     THE MAXIMUM NUMBER OF INCREMENTS IN THIS STEP IS                      50

          LARGE DISPLACEMENT THEORY WILL BE USED

     LINEAR EXTRAPOLATION WILL BE USED

     CHARACTERISTIC ELEMENT LENGTH     2.006E-02

     DETAILS REGARDING ACTUAL SOLUTION WAVEFRONT REQUESTED

     DETAILED OUTPUT OF DIAGNOSTICS TO DATABASE REQUESTED

     PRINT OF INCREMENT NUMBER, TIME, ETC., TO THE MESSAGE FILE EVERY     1  INCREMENTS

     COLLECTING MODEL CONSTRAINT INFORMATION FOR OVERCONSTRAINT CHECKS

     COLLECTING STEP CONSTRAINT INFORMATION FOR OVERCONSTRAINT CHECKS


  INCREMENT     1 STARTS. ATTEMPT NUMBER  1

  NUMBER OF EQUATIONS =    158195     NUMBER OF RHS =    2
  NUMBER OF FLOATING PT. OPERATIONS =  1.72E+10

     CHECK POINT   START OF SOLVER    

     CHECK POINT  END OF SOLVER       

       ELAPSED USER TIME (SEC)      =  0.30000    
       ELAPSED SYSTEM TIME (SEC)    =   0.0000    
       ELAPSED TOTAL CPU TIME (SEC) =  0.30000    
       ELAPSED WALLCLOCK TIME (SEC) =          1

               CONVERGENCE CHECKS FOR EQUILIBRIUM ITERATION     1


 AVERAGE FORCE                      0.349       TIME AVG. FORCE       0.349    
 LARGEST RESIDUAL FORCE            -1.820E-04   AT NODE          3   DOF  1
   INSTANCE: PANEL-1                                                                         
 LARGEST INCREMENT OF DISP.         1.960E-07   AT NODE       1210   DOF  1
   INSTANCE: PANEL-1                                                                         
 LARGEST CORRECTION TO DISP.        1.960E-07   AT NODE       1210   DOF  1
   INSTANCE: PANEL-1                                                                         
 ESTIMATE OF DISP.    CORRECTION   -1.070E-13
 FORCE     EQUILIB. ACCEPTED BASED ON SMALL RESIDUAL AND ESTIMATED CORRECTION

 AVERAGE MOMENT                     5.711E-05   TIME AVG. MOMENT      5.711E-05
 LARGEST RESIDUAL MOMENT           -1.986E-07   AT NODE       1687   DOF  5
   INSTANCE: PANEL-1                                                                         
 LARGEST INCREMENT OF ROTATION     -1.788E-06   AT NODE          1   DOF  5
   INSTANCE: PANEL-1                                                                         
 LARGEST CORRECTION TO ROTATION    -1.788E-06   AT NODE          1   DOF  5
   INSTANCE: PANEL-1                                                                         
          ROTATION CORRECTION TOO LARGE COMPARED TO ROTATION INCREMENT

  NUMBER OF EQUATIONS =    158195     NUMBER OF RHS =    2
  NUMBER OF FLOATING PT. OPERATIONS =  1.72E+10

     CHECK POINT   START OF SOLVER    

     CHECK POINT  END OF SOLVER       

       ELAPSED USER TIME (SEC)      =  0.40000    
       ELAPSED SYSTEM TIME (SEC)    =   0.0000    
       ELAPSED TOTAL CPU TIME (SEC) =  0.40000    
       ELAPSED WALLCLOCK TIME (SEC) =          1

               CONVERGENCE CHECKS FOR EQUILIBRIUM ITERATION     2


 AVERAGE FORCE                      0.349       TIME AVG. FORCE       0.349    
 LARGEST RESIDUAL FORCE             2.689E-05   AT NODE          3   DOF  1
   INSTANCE: PANEL-1                                                                         
 LARGEST INCREMENT OF DISP.         1.960E-07   AT NODE       1210   DOF  1
   INSTANCE: PANEL-1                                                                         
 LARGEST CORRECTION TO DISP.        4.079E-12   AT NODE      16964   DOF  3
   INSTANCE: PANEL-1                                                                         
          THE FORCE     EQUILIBRIUM EQUATIONS HAVE CONVERGED

 AVERAGE MOMENT                     5.711E-05   TIME AVG. MOMENT      5.711E-05
 LARGEST RESIDUAL MOMENT           -6.280E-09   AT NODE       1529   DOF  6
   INSTANCE: PANEL-1                                                                         
 LARGEST INCREMENT OF ROTATION     -1.788E-06   AT NODE          1   DOF  5
   INSTANCE: PANEL-1                                                                         
 LARGEST CORRECTION TO ROTATION     1.483E-11   AT NODE         11   DOF  5
   INSTANCE: PANEL-1                                                                         
          THE MOMENT    EQUILIBRIUM EQUATIONS HAVE CONVERGED

 ITERATION SUMMARY FOR THE INCREMENT:   2 TOTAL ITERATIONS, OF WHICH
   0 ARE SEVERE DISCONTINUITY ITERATIONS AND  2 ARE EQUILIBRIUM ITERATIONS.


                                INCREMENT     1 SUMMARY


     CURRENT LOAD PROPORTIONALITY FACTOR         3.3333E-04
     TOTAL ARC LENGTH   1.000E-02, INCREMENT OF ARC LENGTH   1.000E-02


  INCREMENT     2 STARTS. ATTEMPT NUMBER  1

  NUMBER OF EQUATIONS =    158195     NUMBER OF RHS =    2
  NUMBER OF FLOATING PT. OPERATIONS =  1.72E+10

     CHECK POINT   START OF SOLVER    

     CHECK POINT  END OF SOLVER       

       ELAPSED USER TIME (SEC)      =  0.40000    
       ELAPSED SYSTEM TIME (SEC)    =  0.10000    
       ELAPSED TOTAL CPU TIME (SEC) =  0.50000    
       ELAPSED WALLCLOCK TIME (SEC) =          1

               CONVERGENCE CHECKS FOR EQUILIBRIUM ITERATION     1


 AVERAGE FORCE                       1.14       TIME AVG. FORCE       0.745    
 LARGEST RESIDUAL FORCE             1.980E-04   AT NODE          4   DOF  1
   INSTANCE: PANEL-1                                                                         
 LARGEST INCREMENT OF DISP.         1.960E-07   AT NODE       1210   DOF  1
   INSTANCE: PANEL-1                                                                         
 LARGEST CORRECTION TO DISP.        1.960E-07   AT NODE       1210   DOF  1
   INSTANCE: PANEL-1                                                                         
 ESTIMATE OF DISP.    CORRECTION    1.176E-13
 FORCE     EQUILIB. ACCEPTED BASED ON SMALL RESIDUAL AND ESTIMATED CORRECTION

 AVERAGE MOMENT                     1.450E-04   TIME AVG. MOMENT      1.010E-04
 LARGEST RESIDUAL MOMENT            1.949E-07   AT NODE       1368   DOF  5
   INSTANCE: PANEL-1                                                                         
 LARGEST INCREMENT OF ROTATION     -1.788E-06   AT NODE          8   DOF  5
   INSTANCE: PANEL-1                                                                         
 LARGEST CORRECTION TO ROTATION    -1.788E-06   AT NODE          8   DOF  5
   INSTANCE: PANEL-1                                                                         
          ROTATION CORRECTION TOO LARGE COMPARED TO ROTATION INCREMENT

  NUMBER OF EQUATIONS =    158195     NUMBER OF RHS =    2
  NUMBER OF FLOATING PT. OPERATIONS =  1.72E+10

     CHECK POINT   START OF SOLVER    

     CHECK POINT  END OF SOLVER       

       ELAPSED USER TIME (SEC)      =  0.60000    
       ELAPSED SYSTEM TIME (SEC)    =   0.0000    
       ELAPSED TOTAL CPU TIME (SEC) =  0.60000    
       ELAPSED WALLCLOCK TIME (SEC) =          1

               CONVERGENCE CHECKS FOR EQUILIBRIUM ITERATION     2


 AVERAGE FORCE                       1.14       TIME AVG. FORCE       0.745    
 LARGEST RESIDUAL FORCE            -2.312E-05   AT NODE          3   DOF  1
   INSTANCE: PANEL-1                                                                         
 LARGEST INCREMENT OF DISP.         1.960E-07   AT NODE       1210   DOF  1
   INSTANCE: PANEL-1                                                                         
 LARGEST CORRECTION TO DISP.        4.034E-12   AT NODE      16964   DOF  3
   INSTANCE: PANEL-1                                                                         
          THE FORCE     EQUILIBRIUM EQUATIONS HAVE CONVERGED

 AVERAGE MOMENT                     1.450E-04   TIME AVG. MOMENT      1.010E-04
 LARGEST RESIDUAL MOMENT            5.137E-09   AT NODE      25670   DOF  6
   INSTANCE: PANEL-1                                                                         
 LARGEST INCREMENT OF ROTATION     -1.788E-06   AT NODE          8   DOF  5
   INSTANCE: PANEL-1                                                                         
 LARGEST CORRECTION TO ROTATION    -1.456E-11   AT NODE          6   DOF  5
   INSTANCE: PANEL-1                                                                         
          THE MOMENT    EQUILIBRIUM EQUATIONS HAVE CONVERGED
          ARC LENGTH INCREMENT MAY NOW INCREASE TO    1.500E-02

 ITERATION SUMMARY FOR THE INCREMENT:   2 TOTAL ITERATIONS, OF WHICH
   0 ARE SEVERE DISCONTINUITY ITERATIONS AND  2 ARE EQUILIBRIUM ITERATIONS.


                                INCREMENT     2 SUMMARY


     CURRENT LOAD PROPORTIONALITY FACTOR         6.6666E-04
     TOTAL ARC LENGTH   2.000E-02, INCREMENT OF ARC LENGTH   1.000E-02


  INCREMENT     3 STARTS. ATTEMPT NUMBER  1

  NUMBER OF EQUATIONS =    158195     NUMBER OF RHS =    2
  NUMBER OF FLOATING PT. OPERATIONS =  1.72E+10

     CHECK POINT   START OF SOLVER    

     CHECK POINT  END OF SOLVER       

       ELAPSED USER TIME (SEC)      =  0.50000    
       ELAPSED SYSTEM TIME (SEC)    =   0.0000    
       ELAPSED TOTAL CPU TIME (SEC) =  0.50000    
       ELAPSED WALLCLOCK TIME (SEC) =          1

               CONVERGENCE CHECKS FOR EQUILIBRIUM ITERATION     1


 AVERAGE FORCE                       1.97       TIME AVG. FORCE        1.15    
 LARGEST RESIDUAL FORCE            -3.136E-04   AT NODE          3   DOF  1
   INSTANCE: PANEL-1                                                                         
 LARGEST INCREMENT OF DISP.         2.941E-07   AT NODE       1210   DOF  1
   INSTANCE: PANEL-1                                                                         
 LARGEST CORRECTION TO DISP.        2.941E-07   AT NODE       1210   DOF  1
   INSTANCE: PANEL-1                                                                         
 ESTIMATE OF DISP.    CORRECTION   -1.863E-13
 FORCE     EQUILIB. ACCEPTED BASED ON SMALL RESIDUAL AND ESTIMATED CORRECTION

 AVERAGE MOMENT                     2.506E-04   TIME AVG. MOMENT      1.509E-04
 LARGEST RESIDUAL MOMENT            4.379E-07   AT NODE       1686   DOF  5
   INSTANCE: PANEL-1                                                                         
 LARGEST INCREMENT OF ROTATION     -2.682E-06   AT NODE          1   DOF  5
   INSTANCE: PANEL-1                                                                         
 LARGEST CORRECTION TO ROTATION    -2.682E-06   AT NODE          1   DOF  5
   INSTANCE: PANEL-1                                                                         
          ROTATION CORRECTION TOO LARGE COMPARED TO ROTATION INCREMENT

  NUMBER OF EQUATIONS =    158195     NUMBER OF RHS =    2
  NUMBER OF FLOATING PT. OPERATIONS =  1.72E+10

     CHECK POINT   START OF SOLVER    

     CHECK POINT  END OF SOLVER       

       ELAPSED USER TIME (SEC)      =  0.40000    
       ELAPSED SYSTEM TIME (SEC)    =   0.0000    
       ELAPSED TOTAL CPU TIME (SEC) =  0.40000    
       ELAPSED WALLCLOCK TIME (SEC) =          1

               CONVERGENCE CHECKS FOR EQUILIBRIUM ITERATION     2


 AVERAGE FORCE                       1.97       TIME AVG. FORCE        1.15    
 LARGEST RESIDUAL FORCE             3.938E-05   AT NODE          4   DOF  1
   INSTANCE: PANEL-1                                                                         
 LARGEST INCREMENT OF DISP.         2.941E-07   AT NODE       1210   DOF  1
   INSTANCE: PANEL-1                                                                         
 LARGEST CORRECTION TO DISP.        9.085E-12   AT NODE      16964   DOF  3
   INSTANCE: PANEL-1                                                                         
          THE FORCE     EQUILIBRIUM EQUATIONS HAVE CONVERGED

 AVERAGE MOMENT                     2.506E-04   TIME AVG. MOMENT      1.509E-04
 LARGEST RESIDUAL MOMENT            5.861E-09   AT NODE       1208   DOF  6
   INSTANCE: PANEL-1                                                                         
 LARGEST INCREMENT OF ROTATION     -2.682E-06   AT NODE          1   DOF  5
   INSTANCE: PANEL-1                                                                         
 LARGEST CORRECTION TO ROTATION     3.272E-11   AT NODE          5   DOF  5
   INSTANCE: PANEL-1                                                                         
          THE MOMENT    EQUILIBRIUM EQUATIONS HAVE CONVERGED
          ARC LENGTH INCREMENT MAY NOW INCREASE TO    2.250E-02

 ITERATION SUMMARY FOR THE INCREMENT:   2 TOTAL ITERATIONS, OF WHICH
   0 ARE SEVERE DISCONTINUITY ITERATIONS AND  2 ARE EQUILIBRIUM ITERATIONS.


                                INCREMENT     3 SUMMARY


     CURRENT LOAD PROPORTIONALITY FACTOR         1.1666E-03
     TOTAL ARC LENGTH   3.500E-02, INCREMENT OF ARC LENGTH   1.500E-02


  INCREMENT     4 STARTS. ATTEMPT NUMBER  1

  NUMBER OF EQUATIONS =    158195     NUMBER OF RHS =    2
  NUMBER OF FLOATING PT. OPERATIONS =  1.72E+10

     CHECK POINT   START OF SOLVER    

     CHECK POINT  END OF SOLVER       

       ELAPSED USER TIME (SEC)      =  0.30000    
       ELAPSED SYSTEM TIME (SEC)    =   0.0000    
       ELAPSED TOTAL CPU TIME (SEC) =  0.30000    
       ELAPSED WALLCLOCK TIME (SEC) =          1

               CONVERGENCE CHECKS FOR EQUILIBRIUM ITERATION     1


 AVERAGE FORCE                       3.19       TIME AVG. FORCE        1.66    
 LARGEST RESIDUAL FORCE            -7.600E-04   AT NODE          3   DOF  1
   INSTANCE: PANEL-1                                                                         
 LARGEST INCREMENT OF DISP.         4.411E-07   AT NODE       1210   DOF  1
   INSTANCE: PANEL-1                                                                         
 LARGEST CORRECTION TO DISP.        4.411E-07   AT NODE       1210   DOF  1
   INSTANCE: PANEL-1                                                                         
 ESTIMATE OF DISP.    CORRECTION   -4.515E-13
 FORCE     EQUILIB. ACCEPTED BASED ON SMALL RESIDUAL AND ESTIMATED CORRECTION

 AVERAGE MOMENT                     4.078E-04   TIME AVG. MOMENT      2.151E-04
 LARGEST RESIDUAL MOMENT           -9.848E-07   AT NODE       1687   DOF  5
   INSTANCE: PANEL-1                                                                         
 LARGEST INCREMENT OF ROTATION     -4.022E-06   AT NODE          1   DOF  5
   INSTANCE: PANEL-1                                                                         
 LARGEST CORRECTION TO ROTATION    -4.022E-06   AT NODE          1   DOF  5
   INSTANCE: PANEL-1                                                                         
          ROTATION CORRECTION TOO LARGE COMPARED TO ROTATION INCREMENT

  NUMBER OF EQUATIONS =    158195     NUMBER OF RHS =    2
  NUMBER OF FLOATING PT. OPERATIONS =  1.72E+10

     CHECK POINT   START OF SOLVER    

     CHECK POINT  END OF SOLVER       

       ELAPSED USER TIME (SEC)      =  0.50000    
       ELAPSED SYSTEM TIME (SEC)    =   0.0000    
       ELAPSED TOTAL CPU TIME (SEC) =  0.50000    
       ELAPSED WALLCLOCK TIME (SEC) =          1

               CONVERGENCE CHECKS FOR EQUILIBRIUM ITERATION     2


 AVERAGE FORCE                       3.19       TIME AVG. FORCE        1.66    
 LARGEST RESIDUAL FORCE             4.554E-05   AT NODE          4   DOF  1
   INSTANCE: PANEL-1                                                                         
 LARGEST INCREMENT OF DISP.         4.411E-07   AT NODE       1210   DOF  1
   INSTANCE: PANEL-1                                                                         
 LARGEST CORRECTION TO DISP.        2.044E-11   AT NODE      16964   DOF  3
   INSTANCE: PANEL-1                                                                         
          THE FORCE     EQUILIBRIUM EQUATIONS HAVE CONVERGED

 AVERAGE MOMENT                     4.078E-04   TIME AVG. MOMENT      2.151E-04
 LARGEST RESIDUAL MOMENT           -4.883E-09   AT NODE      23449   DOF  4
   INSTANCE: PANEL-1                                                                         
 LARGEST INCREMENT OF ROTATION     -4.022E-06   AT NODE          1   DOF  5
   INSTANCE: PANEL-1                                                                         
 LARGEST CORRECTION TO ROTATION     7.353E-11   AT NODE         11   DOF  5
   INSTANCE: PANEL-1                                                                         
          THE MOMENT    EQUILIBRIUM EQUATIONS HAVE CONVERGED
          ARC LENGTH INCREMENT MAY NOW INCREASE TO    3.375E-02

 ITERATION SUMMARY FOR THE INCREMENT:   2 TOTAL ITERATIONS, OF WHICH
   0 ARE SEVERE DISCONTINUITY ITERATIONS AND  2 ARE EQUILIBRIUM ITERATIONS.


                                INCREMENT     4 SUMMARY


     CURRENT LOAD PROPORTIONALITY FACTOR         1.9166E-03
     TOTAL ARC LENGTH   5.750E-02, INCREMENT OF ARC LENGTH   2.250E-02


  INCREMENT     5 STARTS. ATTEMPT NUMBER  1

  NUMBER OF EQUATIONS =    158195     NUMBER OF RHS =    2
  NUMBER OF FLOATING PT. OPERATIONS =  1.72E+10

     CHECK POINT   START OF SOLVER    

     CHECK POINT  END OF SOLVER       

       ELAPSED USER TIME (SEC)      =  0.50000    
       ELAPSED SYSTEM TIME (SEC)    =   0.0000    
       ELAPSED TOTAL CPU TIME (SEC) =  0.50000    
       ELAPSED WALLCLOCK TIME (SEC) =          1

               CONVERGENCE CHECKS FOR EQUILIBRIUM ITERATION     1


 AVERAGE FORCE                       5.02       TIME AVG. FORCE        2.33    
 LARGEST RESIDUAL FORCE            -1.744E-03   AT NODE          3   DOF  1
   INSTANCE: PANEL-1                                                                         
 LARGEST INCREMENT OF DISP.         6.616E-07   AT NODE       1210   DOF  1
   INSTANCE: PANEL-1                                                                         
 LARGEST CORRECTION TO DISP.        6.616E-07   AT NODE       1210   DOF  1
   INSTANCE: PANEL-1                                                                         
 ESTIMATE OF DISP.    CORRECTION   -1.036E-12
 FORCE     EQUILIB. ACCEPTED BASED ON SMALL RESIDUAL AND ESTIMATED CORRECTION

 AVERAGE MOMENT                     6.420E-04   TIME AVG. MOMENT      3.005E-04
 LARGEST RESIDUAL MOMENT           -2.216E-06   AT NODE       1369   DOF  5
   INSTANCE: PANEL-1                                                                         
 LARGEST INCREMENT OF ROTATION     -6.033E-06   AT NODE          1   DOF  5
   INSTANCE: PANEL-1                                                                         
 LARGEST CORRECTION TO ROTATION    -6.033E-06   AT NODE          1   DOF  5
   INSTANCE: PANEL-1                                                                         
          MOMENT    EQUILIBRIUM NOT ACHIEVED WITHIN TOLERANCE.

  NUMBER OF EQUATIONS =    158195     NUMBER OF RHS =    2
  NUMBER OF FLOATING PT. OPERATIONS =  1.72E+10

     CHECK POINT   START OF SOLVER    

     CHECK POINT  END OF SOLVER       

       ELAPSED USER TIME (SEC)      =  0.60000    
       ELAPSED SYSTEM TIME (SEC)    =   0.0000    
       ELAPSED TOTAL CPU TIME (SEC) =  0.60000    
       ELAPSED WALLCLOCK TIME (SEC) =          1

               CONVERGENCE CHECKS FOR EQUILIBRIUM ITERATION     2


 AVERAGE FORCE                       5.02       TIME AVG. FORCE        2.33    
 LARGEST RESIDUAL FORCE             5.449E-05   AT NODE          3   DOF  1
   INSTANCE: PANEL-1                                                                         
 LARGEST INCREMENT OF DISP.         6.616E-07   AT NODE       1210   DOF  1
   INSTANCE: PANEL-1                                                                         
 LARGEST CORRECTION TO DISP.        4.601E-11   AT NODE      16964   DOF  3
   INSTANCE: PANEL-1                                                                         
          THE FORCE     EQUILIBRIUM EQUATIONS HAVE CONVERGED

 AVERAGE MOMENT                     6.420E-04   TIME AVG. MOMENT      3.005E-04
 LARGEST RESIDUAL MOMENT            4.850E-09   AT NODE      24945   DOF  6
   INSTANCE: PANEL-1                                                                         
 LARGEST INCREMENT OF ROTATION     -6.033E-06   AT NODE          1   DOF  5
   INSTANCE: PANEL-1                                                                         
 LARGEST CORRECTION TO ROTATION    -1.655E-10   AT NODE          6   DOF  5
   INSTANCE: PANEL-1                                                                         
          THE MOMENT    EQUILIBRIUM EQUATIONS HAVE CONVERGED
          ARC LENGTH INCREMENT MAY NOW INCREASE TO    5.063E-02

 ITERATION SUMMARY FOR THE INCREMENT:   2 TOTAL ITERATIONS, OF WHICH
   0 ARE SEVERE DISCONTINUITY ITERATIONS AND  2 ARE EQUILIBRIUM ITERATIONS.


                                INCREMENT     5 SUMMARY


     CURRENT LOAD PROPORTIONALITY FACTOR         3.0415E-03
     TOTAL ARC LENGTH   9.125E-02, INCREMENT OF ARC LENGTH   3.375E-02


  INCREMENT     6 STARTS. ATTEMPT NUMBER  1

  NUMBER OF EQUATIONS =    158195     NUMBER OF RHS =    2
  NUMBER OF FLOATING PT. OPERATIONS =  1.72E+10

     CHECK POINT   START OF SOLVER    

     CHECK POINT  END OF SOLVER       

       ELAPSED USER TIME (SEC)      =  0.50000    
       ELAPSED SYSTEM TIME (SEC)    =   0.0000    
       ELAPSED TOTAL CPU TIME (SEC) =  0.50000    
       ELAPSED WALLCLOCK TIME (SEC) =          1

               CONVERGENCE CHECKS FOR EQUILIBRIUM ITERATION     1


 AVERAGE FORCE                       7.74       TIME AVG. FORCE        3.23    
 LARGEST RESIDUAL FORCE             3.867E-03   AT NODE          4   DOF  1
   INSTANCE: PANEL-1                                                                         
 LARGEST INCREMENT OF DISP.         9.923E-07   AT NODE       1210   DOF  1
   INSTANCE: PANEL-1                                                                         
 LARGEST CORRECTION TO DISP.        9.923E-07   AT NODE       1210   DOF  1
   INSTANCE: PANEL-1                                                                         
 ESTIMATE OF DISP.    CORRECTION    2.297E-12
 FORCE     EQUILIB. ACCEPTED BASED ON SMALL RESIDUAL AND ESTIMATED CORRECTION

 AVERAGE MOMENT                     9.896E-04   TIME AVG. MOMENT      4.153E-04
 LARGEST RESIDUAL MOMENT            4.985E-06   AT NODE       1686   DOF  5
   INSTANCE: PANEL-1                                                                         
 LARGEST INCREMENT OF ROTATION     -9.049E-06   AT NODE          8   DOF  5
   INSTANCE: PANEL-1                                                                         
 LARGEST CORRECTION TO ROTATION    -9.049E-06   AT NODE          8   DOF  5
   INSTANCE: PANEL-1                                                                         
          MOMENT    EQUILIBRIUM NOT ACHIEVED WITHIN TOLERANCE.

  NUMBER OF EQUATIONS =    158195     NUMBER OF RHS =    2
  NUMBER OF FLOATING PT. OPERATIONS =  1.72E+10

     CHECK POINT   START OF SOLVER    

     CHECK POINT  END OF SOLVER       

       ELAPSED USER TIME (SEC)      =  0.50000    
       ELAPSED SYSTEM TIME (SEC)    =   0.0000    
       ELAPSED TOTAL CPU TIME (SEC) =  0.50000    
       ELAPSED WALLCLOCK TIME (SEC) =          1

               CONVERGENCE CHECKS FOR EQUILIBRIUM ITERATION     2


 AVERAGE FORCE                       7.74       TIME AVG. FORCE        3.23    
 LARGEST RESIDUAL FORCE            -5.304E-05   AT NODE          4   DOF  1
   INSTANCE: PANEL-1                                                                         
 LARGEST INCREMENT OF DISP.         9.923E-07   AT NODE       1210   DOF  1
   INSTANCE: PANEL-1                                                                         
 LARGEST CORRECTION TO DISP.        1.036E-10   AT NODE      16964   DOF  3
   INSTANCE: PANEL-1                                                                         
          THE FORCE     EQUILIBRIUM EQUATIONS HAVE CONVERGED

 AVERAGE MOMENT                     9.896E-04   TIME AVG. MOMENT      4.153E-04
 LARGEST RESIDUAL MOMENT           -4.090E-09   AT NODE         21   DOF  4
   INSTANCE: PANEL-1                                                                         
 LARGEST INCREMENT OF ROTATION     -9.049E-06   AT NODE          1   DOF  5
   INSTANCE: PANEL-1                                                                         
 LARGEST CORRECTION TO ROTATION    -3.725E-10   AT NODE          6   DOF  5
   INSTANCE: PANEL-1                                                                         
          THE MOMENT    EQUILIBRIUM EQUATIONS HAVE CONVERGED
          ARC LENGTH INCREMENT MAY NOW INCREASE TO    7.594E-02

 ITERATION SUMMARY FOR THE INCREMENT:   2 TOTAL ITERATIONS, OF WHICH
   0 ARE SEVERE DISCONTINUITY ITERATIONS AND  2 ARE EQUILIBRIUM ITERATIONS.


                                INCREMENT     6 SUMMARY


     CURRENT LOAD PROPORTIONALITY FACTOR         4.7288E-03
     TOTAL ARC LENGTH   0.142    , INCREMENT OF ARC LENGTH   5.063E-02


  INCREMENT     7 STARTS. ATTEMPT NUMBER  1

  NUMBER OF EQUATIONS =    158195     NUMBER OF RHS =    2
  NUMBER OF FLOATING PT. OPERATIONS =  1.72E+10

     CHECK POINT   START OF SOLVER    

     CHECK POINT  END OF SOLVER       

       ELAPSED USER TIME (SEC)      =  0.30000    
       ELAPSED SYSTEM TIME (SEC)    =   0.0000    
       ELAPSED TOTAL CPU TIME (SEC) =  0.30000    
       ELAPSED WALLCLOCK TIME (SEC) =          1

               CONVERGENCE CHECKS FOR EQUILIBRIUM ITERATION     1


 AVERAGE FORCE                       11.8       TIME AVG. FORCE        4.46    
 LARGEST RESIDUAL FORCE            -8.613E-03   AT NODE          3   DOF  1
   INSTANCE: PANEL-1                                                                         
 LARGEST INCREMENT OF DISP.         1.488E-06   AT NODE       1210   DOF  1
   INSTANCE: PANEL-1                                                                         
 LARGEST CORRECTION TO DISP.        1.488E-06   AT NODE       1210   DOF  1
   INSTANCE: PANEL-1                                                                         
 ESTIMATE OF DISP.    CORRECTION   -5.117E-12
 FORCE     EQUILIB. ACCEPTED BASED ON SMALL RESIDUAL AND ESTIMATED CORRECTION

 AVERAGE MOMENT                     1.508E-03   TIME AVG. MOMENT      5.714E-04
 LARGEST RESIDUAL MOMENT           -1.122E-05   AT NODE       1369   DOF  5
   INSTANCE: PANEL-1                                                                         
 LARGEST INCREMENT OF ROTATION     -1.357E-05   AT NODE          1   DOF  5
   INSTANCE: PANEL-1                                                                         
 LARGEST CORRECTION TO ROTATION    -1.357E-05   AT NODE          1   DOF  5
   INSTANCE: PANEL-1                                                                         
          MOMENT    EQUILIBRIUM NOT ACHIEVED WITHIN TOLERANCE.

  NUMBER OF EQUATIONS =    158195     NUMBER OF RHS =    2
  NUMBER OF FLOATING PT. OPERATIONS =  1.72E+10

     CHECK POINT   START OF SOLVER    

     CHECK POINT  END OF SOLVER       

       ELAPSED USER TIME (SEC)      =  0.70000    
       ELAPSED SYSTEM TIME (SEC)    =  0.10000    
       ELAPSED TOTAL CPU TIME (SEC) =  0.80000    
       ELAPSED WALLCLOCK TIME (SEC) =          1

               CONVERGENCE CHECKS FOR EQUILIBRIUM ITERATION     2


 AVERAGE FORCE                       11.8       TIME AVG. FORCE        4.46    
 LARGEST RESIDUAL FORCE             6.399E-05   AT NODE          3   DOF  1
   INSTANCE: PANEL-1                                                                         
 LARGEST INCREMENT OF DISP.         1.488E-06   AT NODE       1210   DOF  1
   INSTANCE: PANEL-1                                                                         
 LARGEST CORRECTION TO DISP.        2.333E-10   AT NODE      16964   DOF  3
   INSTANCE: PANEL-1                                                                         
          THE FORCE     EQUILIBRIUM EQUATIONS HAVE CONVERGED

 AVERAGE MOMENT                     1.508E-03   TIME AVG. MOMENT      5.714E-04
 LARGEST RESIDUAL MOMENT           -6.817E-09   AT NODE      24189   DOF  6
   INSTANCE: PANEL-1                                                                         
 LARGEST INCREMENT OF ROTATION     -1.357E-05   AT NODE          8   DOF  5
   INSTANCE: PANEL-1                                                                         
 LARGEST CORRECTION TO ROTATION    -8.390E-10   AT NODE         12   DOF  5
   INSTANCE: PANEL-1                                                                         
          THE MOMENT    EQUILIBRIUM EQUATIONS HAVE CONVERGED
          ARC LENGTH INCREMENT MAY NOW INCREASE TO    0.114    

 ITERATION SUMMARY FOR THE INCREMENT:   2 TOTAL ITERATIONS, OF WHICH
   0 ARE SEVERE DISCONTINUITY ITERATIONS AND  2 ARE EQUILIBRIUM ITERATIONS.


                                INCREMENT     7 SUMMARY


     CURRENT LOAD PROPORTIONALITY FACTOR         7.2595E-03
     TOTAL ARC LENGTH   0.218    , INCREMENT OF ARC LENGTH   7.594E-02


  INCREMENT     8 STARTS. ATTEMPT NUMBER  1

  NUMBER OF EQUATIONS =    158195     NUMBER OF RHS =    2
  NUMBER OF FLOATING PT. OPERATIONS =  1.72E+10

     CHECK POINT   START OF SOLVER    

     CHECK POINT  END OF SOLVER       

       ELAPSED USER TIME (SEC)      =  0.30000    
       ELAPSED SYSTEM TIME (SEC)    =   0.0000    
       ELAPSED TOTAL CPU TIME (SEC) =  0.30000    
       ELAPSED WALLCLOCK TIME (SEC) =          1

               CONVERGENCE CHECKS FOR EQUILIBRIUM ITERATION     1


 AVERAGE FORCE                       17.8       TIME AVG. FORCE        6.13    
 LARGEST RESIDUAL FORCE             1.933E-02   AT NODE          4   DOF  1
   INSTANCE: PANEL-1                                                                         
 LARGEST INCREMENT OF DISP.         2.232E-06   AT NODE       1210   DOF  1
   INSTANCE: PANEL-1                                                                         
 LARGEST CORRECTION TO DISP.        2.232E-06   AT NODE       1210   DOF  1
   INSTANCE: PANEL-1                                                                         
 ESTIMATE OF DISP.    CORRECTION    1.149E-11
 FORCE     EQUILIB. ACCEPTED BASED ON SMALL RESIDUAL AND ESTIMATED CORRECTION

 AVERAGE MOMENT                     2.281E-03   TIME AVG. MOMENT      7.851E-04
 LARGEST RESIDUAL MOMENT            2.523E-05   AT NODE       1368   DOF  5
   INSTANCE: PANEL-1                                                                         
 LARGEST INCREMENT OF ROTATION     -2.036E-05   AT NODE          1   DOF  5
   INSTANCE: PANEL-1                                                                         
 LARGEST CORRECTION TO ROTATION    -2.036E-05   AT NODE          1   DOF  5
   INSTANCE: PANEL-1                                                                         
          MOMENT    EQUILIBRIUM NOT ACHIEVED WITHIN TOLERANCE.

  NUMBER OF EQUATIONS =    158195     NUMBER OF RHS =    2
  NUMBER OF FLOATING PT. OPERATIONS =  1.72E+10

     CHECK POINT   START OF SOLVER    

     CHECK POINT  END OF SOLVER       

       ELAPSED USER TIME (SEC)      =  0.40000    
       ELAPSED SYSTEM TIME (SEC)    =   0.0000    
       ELAPSED TOTAL CPU TIME (SEC) =  0.40000    
       ELAPSED WALLCLOCK TIME (SEC) =          1

               CONVERGENCE CHECKS FOR EQUILIBRIUM ITERATION     2


 AVERAGE FORCE                       17.8       TIME AVG. FORCE        6.13    
 LARGEST RESIDUAL FORCE            -1.123E-05   AT NODE      24930   DOF  1
   INSTANCE: PANEL-1                                                                         
 LARGEST INCREMENT OF DISP.         2.232E-06   AT NODE       1210   DOF  1
   INSTANCE: PANEL-1                                                                         
 LARGEST CORRECTION TO DISP.        5.256E-10   AT NODE      16964   DOF  3
   INSTANCE: PANEL-1                                                                         
          THE FORCE     EQUILIBRIUM EQUATIONS HAVE CONVERGED

 AVERAGE MOMENT                     2.281E-03   TIME AVG. MOMENT      7.852E-04
 LARGEST RESIDUAL MOMENT           -6.964E-09   AT NODE      23450   DOF  6
   INSTANCE: PANEL-1                                                                         
 LARGEST INCREMENT OF ROTATION     -2.036E-05   AT NODE          1   DOF  5
   INSTANCE: PANEL-1                                                                         
 LARGEST CORRECTION TO ROTATION    -1.891E-09   AT NODE          6   DOF  5
   INSTANCE: PANEL-1                                                                         
          THE MOMENT    EQUILIBRIUM EQUATIONS HAVE CONVERGED
          ARC LENGTH INCREMENT MAY NOW INCREASE TO    0.171    

 ITERATION SUMMARY FOR THE INCREMENT:   2 TOTAL ITERATIONS, OF WHICH
   0 ARE SEVERE DISCONTINUITY ITERATIONS AND  2 ARE EQUILIBRIUM ITERATIONS.


                                INCREMENT     8 SUMMARY


     CURRENT LOAD PROPORTIONALITY FACTOR         1.1055E-02
     TOTAL ARC LENGTH   0.332    , INCREMENT OF ARC LENGTH   0.114    


  INCREMENT     9 STARTS. ATTEMPT NUMBER  1

  NUMBER OF EQUATIONS =    158195     NUMBER OF RHS =    2
  NUMBER OF FLOATING PT. OPERATIONS =  1.72E+10

     CHECK POINT   START OF SOLVER    

     CHECK POINT  END OF SOLVER       

       ELAPSED USER TIME (SEC)      =  0.40000    
       ELAPSED SYSTEM TIME (SEC)    =   0.0000    
       ELAPSED TOTAL CPU TIME (SEC) =  0.40000    
       ELAPSED WALLCLOCK TIME (SEC) =          1

               CONVERGENCE CHECKS FOR EQUILIBRIUM ITERATION     1


 AVERAGE FORCE                       26.8       TIME AVG. FORCE        8.43    
 LARGEST RESIDUAL FORCE             4.350E-02   AT NODE          4   DOF  1
   INSTANCE: PANEL-1                                                                         
 LARGEST INCREMENT OF DISP.         3.348E-06   AT NODE       1210   DOF  1
   INSTANCE: PANEL-1                                                                         
 LARGEST CORRECTION TO DISP.        3.348E-06   AT NODE       1210   DOF  1
   INSTANCE: PANEL-1                                                                         
          FORCE     EQUILIBRIUM NOT ACHIEVED WITHIN TOLERANCE.

 AVERAGE MOMENT                     3.435E-03   TIME AVG. MOMENT      1.080E-03
 LARGEST RESIDUAL MOMENT            5.676E-05   AT NODE       1368   DOF  5
   INSTANCE: PANEL-1                                                                         
 LARGEST INCREMENT OF ROTATION     -3.053E-05   AT NODE          1   DOF  5
   INSTANCE: PANEL-1                                                                         
 LARGEST CORRECTION TO ROTATION    -3.053E-05   AT NODE          1   DOF  5
   INSTANCE: PANEL-1                                                                         
          MOMENT    EQUILIBRIUM NOT ACHIEVED WITHIN TOLERANCE.

  NUMBER OF EQUATIONS =    158195     NUMBER OF RHS =    2
  NUMBER OF FLOATING PT. OPERATIONS =  1.72E+10

     CHECK POINT   START OF SOLVER    

     CHECK POINT  END OF SOLVER       

       ELAPSED USER TIME (SEC)      =  0.30000    
       ELAPSED SYSTEM TIME (SEC)    =   0.0000    
       ELAPSED TOTAL CPU TIME (SEC) =  0.30000    
       ELAPSED WALLCLOCK TIME (SEC) =          1

               CONVERGENCE CHECKS FOR EQUILIBRIUM ITERATION     2


 AVERAGE FORCE                       26.8       TIME AVG. FORCE        8.43    
 LARGEST RESIDUAL FORCE            -2.623E-05   AT NODE          4   DOF  1
   INSTANCE: PANEL-1                                                                         
 LARGEST INCREMENT OF DISP.         3.348E-06   AT NODE       1210   DOF  1
   INSTANCE: PANEL-1                                                                         
 LARGEST CORRECTION TO DISP.        1.185E-09   AT NODE      16964   DOF  3
   INSTANCE: PANEL-1                                                                         
          THE FORCE     EQUILIBRIUM EQUATIONS HAVE CONVERGED

 AVERAGE MOMENT                     3.435E-03   TIME AVG. MOMENT      1.080E-03
 LARGEST RESIDUAL MOMENT            4.605E-09   AT NODE      24944   DOF  4
   INSTANCE: PANEL-1                                                                         
 LARGEST INCREMENT OF ROTATION     -3.053E-05   AT NODE          1   DOF  5
   INSTANCE: PANEL-1                                                                         
 LARGEST CORRECTION TO ROTATION     4.268E-09   AT NODE          5   DOF  5
   INSTANCE: PANEL-1                                                                         
          THE MOMENT    EQUILIBRIUM EQUATIONS HAVE CONVERGED
          ARC LENGTH INCREMENT MAY NOW INCREASE TO    0.256    

 ITERATION SUMMARY FOR THE INCREMENT:   2 TOTAL ITERATIONS, OF WHICH
   0 ARE SEVERE DISCONTINUITY ITERATIONS AND  2 ARE EQUILIBRIUM ITERATIONS.


                                INCREMENT     9 SUMMARY


     CURRENT LOAD PROPORTIONALITY FACTOR         1.6748E-02
     TOTAL ARC LENGTH   0.503    , INCREMENT OF ARC LENGTH   0.171    


  INCREMENT    10 STARTS. ATTEMPT NUMBER  1

  NUMBER OF EQUATIONS =    158195     NUMBER OF RHS =    2
  NUMBER OF FLOATING PT. OPERATIONS =  1.72E+10

     CHECK POINT   START OF SOLVER    

     CHECK POINT  END OF SOLVER       

       ELAPSED USER TIME (SEC)      =  0.40000    
       ELAPSED SYSTEM TIME (SEC)    =   0.0000    
       ELAPSED TOTAL CPU TIME (SEC) =  0.40000    
       ELAPSED WALLCLOCK TIME (SEC) =          1

               CONVERGENCE CHECKS FOR EQUILIBRIUM ITERATION     1


 AVERAGE FORCE                       40.2       TIME AVG. FORCE        11.6    
 LARGEST RESIDUAL FORCE             9.780E-02   AT NODE          4   DOF  1
   INSTANCE: PANEL-1                                                                         
 LARGEST INCREMENT OF DISP.         5.021E-06   AT NODE       1210   DOF  1
   INSTANCE: PANEL-1                                                                         
 LARGEST CORRECTION TO DISP.        5.021E-06   AT NODE       1210   DOF  1
   INSTANCE: PANEL-1                                                                         
          FORCE     EQUILIBRIUM NOT ACHIEVED WITHIN TOLERANCE.

 AVERAGE MOMENT                     5.156E-03   TIME AVG. MOMENT      1.487E-03
 LARGEST RESIDUAL MOMENT            1.277E-04   AT NODE       1686   DOF  5
   INSTANCE: PANEL-1                                                                         
 LARGEST INCREMENT OF ROTATION     -4.578E-05   AT NODE          1   DOF  5
   INSTANCE: PANEL-1                                                                         
 LARGEST CORRECTION TO ROTATION    -4.578E-05   AT NODE          1   DOF  5
   INSTANCE: PANEL-1                                                                         
          MOMENT    EQUILIBRIUM NOT ACHIEVED WITHIN TOLERANCE.

  NUMBER OF EQUATIONS =    158195     NUMBER OF RHS =    2
  NUMBER OF FLOATING PT. OPERATIONS =  1.72E+10

     CHECK POINT   START OF SOLVER    

     CHECK POINT  END OF SOLVER       

       ELAPSED USER TIME (SEC)      =  0.30000    
       ELAPSED SYSTEM TIME (SEC)    =   0.0000    
       ELAPSED TOTAL CPU TIME (SEC) =  0.30000    
       ELAPSED WALLCLOCK TIME (SEC) =          1

               CONVERGENCE CHECKS FOR EQUILIBRIUM ITERATION     2


 AVERAGE FORCE                       40.1       TIME AVG. FORCE        11.6    
 LARGEST RESIDUAL FORCE            -3.280E-05   AT NODE          4   DOF  1
   INSTANCE: PANEL-1                                                                         
 LARGEST INCREMENT OF DISP.         5.021E-06   AT NODE       1210   DOF  1
   INSTANCE: PANEL-1                                                                         
 LARGEST CORRECTION TO DISP.        2.674E-09   AT NODE      16964   DOF  3
   INSTANCE: PANEL-1                                                                         
          THE FORCE     EQUILIBRIUM EQUATIONS HAVE CONVERGED

 AVERAGE MOMENT                     5.155E-03   TIME AVG. MOMENT      1.487E-03
 LARGEST RESIDUAL MOMENT            6.733E-09   AT NODE      24189   DOF  6
   INSTANCE: PANEL-1                                                                         
 LARGEST INCREMENT OF ROTATION     -4.577E-05   AT NODE          8   DOF  5
   INSTANCE: PANEL-1                                                                         
 LARGEST CORRECTION TO ROTATION     9.648E-09   AT NODE         11   DOF  5
   INSTANCE: PANEL-1                                                                         
          THE MOMENT    EQUILIBRIUM EQUATIONS HAVE CONVERGED
          ARC LENGTH INCREMENT MAY NOW INCREASE TO    0.384    

 ITERATION SUMMARY FOR THE INCREMENT:   2 TOTAL ITERATIONS, OF WHICH
   0 ARE SEVERE DISCONTINUITY ITERATIONS AND  2 ARE EQUILIBRIUM ITERATIONS.


                                INCREMENT    10 SUMMARY


     CURRENT LOAD PROPORTIONALITY FACTOR         2.5284E-02
     TOTAL ARC LENGTH   0.759    , INCREMENT OF ARC LENGTH   0.256    


  INCREMENT    11 STARTS. ATTEMPT NUMBER  1

  NUMBER OF EQUATIONS =    158195     NUMBER OF RHS =    2
  NUMBER OF FLOATING PT. OPERATIONS =  1.72E+10

     CHECK POINT   START OF SOLVER    

     CHECK POINT  END OF SOLVER       

       ELAPSED USER TIME (SEC)      =  0.40000    
       ELAPSED SYSTEM TIME (SEC)    =   0.0000    
       ELAPSED TOTAL CPU TIME (SEC) =  0.40000    
       ELAPSED WALLCLOCK TIME (SEC) =          1

               CONVERGENCE CHECKS FOR EQUILIBRIUM ITERATION     1


 AVERAGE FORCE                       59.9       TIME AVG. FORCE        16.0    
 LARGEST RESIDUAL FORCE             0.220       AT NODE          4   DOF  1
   INSTANCE: PANEL-1                                                                         
 LARGEST INCREMENT OF DISP.         7.530E-06   AT NODE       1210   DOF  1
   INSTANCE: PANEL-1                                                                         
 LARGEST CORRECTION TO DISP.        7.530E-06   AT NODE       1210   DOF  1
   INSTANCE: PANEL-1                                                                         
          FORCE     EQUILIBRIUM NOT ACHIEVED WITHIN TOLERANCE.

 AVERAGE MOMENT                     7.723E-03   TIME AVG. MOMENT      2.054E-03
 LARGEST RESIDUAL MOMENT            2.872E-04   AT NODE       1368   DOF  5
   INSTANCE: PANEL-1                                                                         
 LARGEST INCREMENT OF ROTATION     -6.864E-05   AT NODE          8   DOF  5
   INSTANCE: PANEL-1                                                                         
 LARGEST CORRECTION TO ROTATION    -6.864E-05   AT NODE          8   DOF  5
   INSTANCE: PANEL-1                                                                         
          MOMENT    EQUILIBRIUM NOT ACHIEVED WITHIN TOLERANCE.

  NUMBER OF EQUATIONS =    158195     NUMBER OF RHS =    2
  NUMBER OF FLOATING PT. OPERATIONS =  1.72E+10

     CHECK POINT   START OF SOLVER    

     CHECK POINT  END OF SOLVER       

       ELAPSED USER TIME (SEC)      =  0.40000    
       ELAPSED SYSTEM TIME (SEC)    =   0.0000    
       ELAPSED TOTAL CPU TIME (SEC) =  0.40000    
       ELAPSED WALLCLOCK TIME (SEC) =          1

               CONVERGENCE CHECKS FOR EQUILIBRIUM ITERATION     2


 AVERAGE FORCE                       59.9       TIME AVG. FORCE        16.0    
 LARGEST RESIDUAL FORCE            -4.211E-05   AT NODE          4   DOF  1
   INSTANCE: PANEL-1                                                                         
 LARGEST INCREMENT OF DISP.         7.528E-06   AT NODE       1210   DOF  1
   INSTANCE: PANEL-1                                                                         
 LARGEST CORRECTION TO DISP.        6.044E-09   AT NODE      16964   DOF  3
   INSTANCE: PANEL-1                                                                         
          THE FORCE     EQUILIBRIUM EQUATIONS HAVE CONVERGED

 AVERAGE MOMENT                     7.723E-03   TIME AVG. MOMENT      2.054E-03
 LARGEST RESIDUAL MOMENT           -1.760E-08   AT NODE         21   DOF  5
   INSTANCE: PANEL-1                                                                         
 LARGEST INCREMENT OF ROTATION     -6.862E-05   AT NODE          8   DOF  5
   INSTANCE: PANEL-1                                                                         
 LARGEST CORRECTION TO ROTATION     2.186E-08   AT NODE         11   DOF  5
   INSTANCE: PANEL-1                                                                         
          THE MOMENT    EQUILIBRIUM EQUATIONS HAVE CONVERGED
          ARC LENGTH INCREMENT MAY NOW INCREASE TO    0.577    

 ITERATION SUMMARY FOR THE INCREMENT:   2 TOTAL ITERATIONS, OF WHICH
   0 ARE SEVERE DISCONTINUITY ITERATIONS AND  2 ARE EQUILIBRIUM ITERATIONS.


                                INCREMENT    11 SUMMARY


     CURRENT LOAD PROPORTIONALITY FACTOR         3.8084E-02
     TOTAL ARC LENGTH    1.14    , INCREMENT OF ARC LENGTH   0.384    


  INCREMENT    12 STARTS. ATTEMPT NUMBER  1

  NUMBER OF EQUATIONS =    158195     NUMBER OF RHS =    2
  NUMBER OF FLOATING PT. OPERATIONS =  1.72E+10

     CHECK POINT   START OF SOLVER    

     CHECK POINT  END OF SOLVER       

       ELAPSED USER TIME (SEC)      =  0.40000    
       ELAPSED SYSTEM TIME (SEC)    =   0.0000    
       ELAPSED TOTAL CPU TIME (SEC) =  0.40000    
       ELAPSED WALLCLOCK TIME (SEC) =          1

               CONVERGENCE CHECKS FOR EQUILIBRIUM ITERATION     1


 AVERAGE FORCE                       89.0       TIME AVG. FORCE        22.1    
 LARGEST RESIDUAL FORCE            -0.494       AT NODE          3   DOF  1
   INSTANCE: PANEL-1                                                                         
 LARGEST INCREMENT OF DISP.         1.129E-05   AT NODE       1210   DOF  1
   INSTANCE: PANEL-1                                                                         
 LARGEST CORRECTION TO DISP.        1.129E-05   AT NODE       1210   DOF  1
   INSTANCE: PANEL-1                                                                         
          FORCE     EQUILIBRIUM NOT ACHIEVED WITHIN TOLERANCE.

 AVERAGE MOMENT                     1.155E-02   TIME AVG. MOMENT      2.846E-03
 LARGEST RESIDUAL MOMENT           -6.458E-04   AT NODE       1369   DOF  5
   INSTANCE: PANEL-1                                                                         
 LARGEST INCREMENT OF ROTATION     -1.029E-04   AT NODE          1   DOF  5
   INSTANCE: PANEL-1                                                                         
 LARGEST CORRECTION TO ROTATION    -1.029E-04   AT NODE          1   DOF  5
   INSTANCE: PANEL-1                                                                         
          MOMENT    EQUILIBRIUM NOT ACHIEVED WITHIN TOLERANCE.

  NUMBER OF EQUATIONS =    158195     NUMBER OF RHS =    2
  NUMBER OF FLOATING PT. OPERATIONS =  1.72E+10

     CHECK POINT   START OF SOLVER    

     CHECK POINT  END OF SOLVER       

       ELAPSED USER TIME (SEC)      =  0.40000    
       ELAPSED SYSTEM TIME (SEC)    =   0.0000    
       ELAPSED TOTAL CPU TIME (SEC) =  0.40000    
       ELAPSED WALLCLOCK TIME (SEC) =          1

               CONVERGENCE CHECKS FOR EQUILIBRIUM ITERATION     2


 AVERAGE FORCE                       89.0       TIME AVG. FORCE        22.1    
 LARGEST RESIDUAL FORCE            -5.668E-05   AT NODE          4   DOF  1
   INSTANCE: PANEL-1                                                                         
 LARGEST INCREMENT OF DISP.         1.129E-05   AT NODE       1210   DOF  1
   INSTANCE: PANEL-1                                                                         
 LARGEST CORRECTION TO DISP.        1.369E-08   AT NODE      16964   DOF  3
   INSTANCE: PANEL-1                                                                         
          THE FORCE     EQUILIBRIUM EQUATIONS HAVE CONVERGED

 AVERAGE MOMENT                     1.155E-02   TIME AVG. MOMENT      2.846E-03
 LARGEST RESIDUAL MOMENT            6.057E-08   AT NODE        584   DOF  5
   INSTANCE: PANEL-1                                                                         
 LARGEST INCREMENT OF ROTATION     -1.029E-04   AT NODE          8   DOF  5
   INSTANCE: PANEL-1                                                                         
 LARGEST CORRECTION TO ROTATION    -4.972E-08   AT NODE         12   DOF  5
   INSTANCE: PANEL-1                                                                         
          THE MOMENT    EQUILIBRIUM EQUATIONS HAVE CONVERGED
          ARC LENGTH INCREMENT MAY NOW INCREASE TO    0.865    

 ITERATION SUMMARY FOR THE INCREMENT:   2 TOTAL ITERATIONS, OF WHICH
   0 ARE SEVERE DISCONTINUITY ITERATIONS AND  2 ARE EQUILIBRIUM ITERATIONS.


                                INCREMENT    12 SUMMARY


     CURRENT LOAD PROPORTIONALITY FACTOR         5.7273E-02
     TOTAL ARC LENGTH    1.72    , INCREMENT OF ARC LENGTH   0.577    


  INCREMENT    13 STARTS. ATTEMPT NUMBER  1

  NUMBER OF EQUATIONS =    158195     NUMBER OF RHS =    2
  NUMBER OF FLOATING PT. OPERATIONS =  1.72E+10

     CHECK POINT   START OF SOLVER    

     CHECK POINT  END OF SOLVER       

       ELAPSED USER TIME (SEC)      =  0.40000    
       ELAPSED SYSTEM TIME (SEC)    =   0.0000    
       ELAPSED TOTAL CPU TIME (SEC) =  0.40000    
       ELAPSED WALLCLOCK TIME (SEC) =          1

               CONVERGENCE CHECKS FOR EQUILIBRIUM ITERATION     1


 AVERAGE FORCE                       132.       TIME AVG. FORCE        30.5    
 LARGEST RESIDUAL FORCE             -1.11       AT NODE          3   DOF  1
   INSTANCE: PANEL-1                                                                         
 LARGEST INCREMENT OF DISP.         1.692E-05   AT NODE       1210   DOF  1
   INSTANCE: PANEL-1                                                                         
 LARGEST CORRECTION TO DISP.        1.692E-05   AT NODE       1210   DOF  1
   INSTANCE: PANEL-1                                                                         
          FORCE     EQUILIBRIUM NOT ACHIEVED WITHIN TOLERANCE.

 AVERAGE MOMENT                     1.728E-02   TIME AVG. MOMENT      3.956E-03
 LARGEST RESIDUAL MOMENT            1.452E-03   AT NODE       1686   DOF  5
   INSTANCE: PANEL-1                                                                         
 LARGEST INCREMENT OF ROTATION     -1.542E-04   AT NODE          1   DOF  5
   INSTANCE: PANEL-1                                                                         
 LARGEST CORRECTION TO ROTATION    -1.542E-04   AT NODE          1   DOF  5
   INSTANCE: PANEL-1                                                                         
          MOMENT    EQUILIBRIUM NOT ACHIEVED WITHIN TOLERANCE.

  NUMBER OF EQUATIONS =    158195     NUMBER OF RHS =    2
  NUMBER OF FLOATING PT. OPERATIONS =  1.72E+10

     CHECK POINT   START OF SOLVER    

     CHECK POINT  END OF SOLVER       

       ELAPSED USER TIME (SEC)      =  0.40000    
       ELAPSED SYSTEM TIME (SEC)    =  0.10000    
       ELAPSED TOTAL CPU TIME (SEC) =  0.50000    
       ELAPSED WALLCLOCK TIME (SEC) =          1

               CONVERGENCE CHECKS FOR EQUILIBRIUM ITERATION     2


 AVERAGE FORCE                       132.       TIME AVG. FORCE        30.5    
 LARGEST RESIDUAL FORCE             1.339E-05   AT NODE          4   DOF  1
   INSTANCE: PANEL-1                                                                         
 LARGEST INCREMENT OF DISP.         1.691E-05   AT NODE       1210   DOF  1
   INSTANCE: PANEL-1                                                                         
 LARGEST CORRECTION TO DISP.        3.112E-08   AT NODE      16964   DOF  3
   INSTANCE: PANEL-1                                                                         
          THE FORCE     EQUILIBRIUM EQUATIONS HAVE CONVERGED

 AVERAGE MOMENT                     1.728E-02   TIME AVG. MOMENT      3.956E-03
 LARGEST RESIDUAL MOMENT           -2.067E-07   AT NODE        732   DOF  5
   INSTANCE: PANEL-1                                                                         
 LARGEST INCREMENT OF ROTATION     -1.541E-04   AT NODE          1   DOF  5
   INSTANCE: PANEL-1                                                                         
 LARGEST CORRECTION TO ROTATION     1.137E-07   AT NODE          5   DOF  5
   INSTANCE: PANEL-1                                                                         
          THE MOMENT    EQUILIBRIUM EQUATIONS HAVE CONVERGED
          ARC LENGTH INCREMENT MAY NOW INCREASE TO     1.30    

 ITERATION SUMMARY FOR THE INCREMENT:   2 TOTAL ITERATIONS, OF WHICH
   0 ARE SEVERE DISCONTINUITY ITERATIONS AND  2 ARE EQUILIBRIUM ITERATIONS.


                                INCREMENT    13 SUMMARY


     CURRENT LOAD PROPORTIONALITY FACTOR         8.6030E-02
     TOTAL ARC LENGTH    2.58    , INCREMENT OF ARC LENGTH   0.865    


  INCREMENT    14 STARTS. ATTEMPT NUMBER  1

  NUMBER OF EQUATIONS =    158195     NUMBER OF RHS =    2
  NUMBER OF FLOATING PT. OPERATIONS =  1.72E+10

     CHECK POINT   START OF SOLVER    

     CHECK POINT  END OF SOLVER       

       ELAPSED USER TIME (SEC)      =   0.0000    
       ELAPSED SYSTEM TIME (SEC)    =   0.0000    
       ELAPSED TOTAL CPU TIME (SEC) =   0.0000    
       ELAPSED WALLCLOCK TIME (SEC) =          1

               CONVERGENCE CHECKS FOR EQUILIBRIUM ITERATION     1


 AVERAGE FORCE                       194.       TIME AVG. FORCE        42.2    
 LARGEST RESIDUAL FORCE             -2.49       AT NODE          3   DOF  1
   INSTANCE: PANEL-1                                                                         
 LARGEST INCREMENT OF DISP.         2.536E-05   AT NODE       1210   DOF  1
   INSTANCE: PANEL-1                                                                         
 LARGEST CORRECTION TO DISP.        2.536E-05   AT NODE       1210   DOF  1
   INSTANCE: PANEL-1                                                                         
          FORCE     EQUILIBRIUM NOT ACHIEVED WITHIN TOLERANCE.

 AVERAGE MOMENT                     2.582E-02   TIME AVG. MOMENT      5.518E-03
 LARGEST RESIDUAL MOMENT           -3.263E-03   AT NODE       1687   DOF  5
   INSTANCE: PANEL-1                                                                         
 LARGEST INCREMENT OF ROTATION     -2.310E-04   AT NODE          8   DOF  5
   INSTANCE: PANEL-1                                                                         
 LARGEST CORRECTION TO ROTATION    -2.310E-04   AT NODE          8   DOF  5
   INSTANCE: PANEL-1                                                                         
          MOMENT    EQUILIBRIUM NOT ACHIEVED WITHIN TOLERANCE.

  NUMBER OF EQUATIONS =    158195     NUMBER OF RHS =    2
  NUMBER OF FLOATING PT. OPERATIONS =  1.72E+10

     CHECK POINT   START OF SOLVER    

     CHECK POINT  END OF SOLVER       

       ELAPSED USER TIME (SEC)      =  0.40000    
       ELAPSED SYSTEM TIME (SEC)    =   0.0000    
       ELAPSED TOTAL CPU TIME (SEC) =  0.40000    
       ELAPSED WALLCLOCK TIME (SEC) =          1

               CONVERGENCE CHECKS FOR EQUILIBRIUM ITERATION     2


 AVERAGE FORCE                       194.       TIME AVG. FORCE        42.2    
 LARGEST RESIDUAL FORCE            -2.256E-05   AT NODE       1528   DOF  1
   INSTANCE: PANEL-1                                                                         
 LARGEST INCREMENT OF DISP.         2.533E-05   AT NODE       1210   DOF  1
   INSTANCE: PANEL-1                                                                         
 LARGEST CORRECTION TO DISP.        7.108E-08   AT NODE      16964   DOF  3
   INSTANCE: PANEL-1                                                                         
          THE FORCE     EQUILIBRIUM EQUATIONS HAVE CONVERGED

 AVERAGE MOMENT                     2.582E-02   TIME AVG. MOMENT      5.518E-03
 LARGEST RESIDUAL MOMENT           -7.165E-07   AT NODE         21   DOF  5
   INSTANCE: PANEL-1                                                                         
 LARGEST INCREMENT OF ROTATION     -2.307E-04   AT NODE          1   DOF  5
   INSTANCE: PANEL-1                                                                         
 LARGEST CORRECTION TO ROTATION     2.620E-07   AT NODE         11   DOF  5
   INSTANCE: PANEL-1                                                                         
          THE MOMENT    EQUILIBRIUM EQUATIONS HAVE CONVERGED
          ARC LENGTH INCREMENT MAY NOW INCREASE TO     1.95    

 ITERATION SUMMARY FOR THE INCREMENT:   2 TOTAL ITERATIONS, OF WHICH
   0 ARE SEVERE DISCONTINUITY ITERATIONS AND  2 ARE EQUILIBRIUM ITERATIONS.


                                INCREMENT    14 SUMMARY


     CURRENT LOAD PROPORTIONALITY FACTOR         0.1291    
     TOTAL ARC LENGTH    3.88    , INCREMENT OF ARC LENGTH    1.30    


  INCREMENT    15 STARTS. ATTEMPT NUMBER  1

  NUMBER OF EQUATIONS =    158195     NUMBER OF RHS =    2
  NUMBER OF FLOATING PT. OPERATIONS =  1.72E+10

     CHECK POINT   START OF SOLVER    

     CHECK POINT  END OF SOLVER       

       ELAPSED USER TIME (SEC)      =  0.30000    
       ELAPSED SYSTEM TIME (SEC)    =   0.0000    
       ELAPSED TOTAL CPU TIME (SEC) =  0.30000    
       ELAPSED WALLCLOCK TIME (SEC) =          1

               CONVERGENCE CHECKS FOR EQUILIBRIUM ITERATION     1


 AVERAGE FORCE                       286.       TIME AVG. FORCE        58.4    
 LARGEST RESIDUAL FORCE              5.58       AT NODE          4   DOF  1
   INSTANCE: PANEL-1                                                                         
 LARGEST INCREMENT OF DISP.         3.797E-05   AT NODE       1210   DOF  1
   INSTANCE: PANEL-1                                                                         
 LARGEST CORRECTION TO DISP.        3.797E-05   AT NODE       1210   DOF  1
   INSTANCE: PANEL-1                                                                         
          FORCE     EQUILIBRIUM NOT ACHIEVED WITHIN TOLERANCE.

 AVERAGE MOMENT                     3.860E-02   TIME AVG. MOMENT      7.723E-03
 LARGEST RESIDUAL MOMENT            7.328E-03   AT NODE       1686   DOF  5
   INSTANCE: PANEL-1                                                                         
 LARGEST INCREMENT OF ROTATION     -3.457E-04   AT NODE          1   DOF  5
   INSTANCE: PANEL-1                                                                         
 LARGEST CORRECTION TO ROTATION    -3.457E-04   AT NODE          1   DOF  5
   INSTANCE: PANEL-1                                                                         
          MOMENT    EQUILIBRIUM NOT ACHIEVED WITHIN TOLERANCE.

  NUMBER OF EQUATIONS =    158195     NUMBER OF RHS =    2
  NUMBER OF FLOATING PT. OPERATIONS =  1.72E+10

     CHECK POINT   START OF SOLVER    

     CHECK POINT  END OF SOLVER       

       ELAPSED USER TIME (SEC)      =  0.30000    
       ELAPSED SYSTEM TIME (SEC)    =   0.0000    
       ELAPSED TOTAL CPU TIME (SEC) =  0.30000    
       ELAPSED WALLCLOCK TIME (SEC) =          1

               CONVERGENCE CHECKS FOR EQUILIBRIUM ITERATION     2


 AVERAGE FORCE                       286.       TIME AVG. FORCE        58.4    
 LARGEST RESIDUAL FORCE            -7.215E-05   AT NODE          3   DOF  1
   INSTANCE: PANEL-1                                                                         
 LARGEST INCREMENT OF DISP.         3.792E-05   AT NODE       1210   DOF  1
   INSTANCE: PANEL-1                                                                         
 LARGEST CORRECTION TO DISP.        1.636E-07   AT NODE      16964   DOF  3
   INSTANCE: PANEL-1                                                                         
          THE FORCE     EQUILIBRIUM EQUATIONS HAVE CONVERGED

 AVERAGE MOMENT                     3.860E-02   TIME AVG. MOMENT      7.723E-03
 LARGEST RESIDUAL MOMENT            2.526E-06   AT NODE        169   DOF  5
   INSTANCE: PANEL-1                                                                         
 LARGEST INCREMENT OF ROTATION     -3.451E-04   AT NODE          8   DOF  5
   INSTANCE: PANEL-1                                                                         
 LARGEST CORRECTION TO ROTATION     6.113E-07   AT NODE          5   DOF  5
   INSTANCE: PANEL-1                                                                         
          THE MOMENT    EQUILIBRIUM EQUATIONS HAVE CONVERGED
          ARC LENGTH INCREMENT MAY NOW INCREASE TO     2.92    

 ITERATION SUMMARY FOR THE INCREMENT:   2 TOTAL ITERATIONS, OF WHICH
   0 ARE SEVERE DISCONTINUITY ITERATIONS AND  2 ARE EQUILIBRIUM ITERATIONS.


                                INCREMENT    15 SUMMARY


     CURRENT LOAD PROPORTIONALITY FACTOR         0.1936    
     TOTAL ARC LENGTH    5.83    , INCREMENT OF ARC LENGTH    1.95    


  INCREMENT    16 STARTS. ATTEMPT NUMBER  1

  NUMBER OF EQUATIONS =    158195     NUMBER OF RHS =    2
  NUMBER OF FLOATING PT. OPERATIONS =  1.72E+10

     CHECK POINT   START OF SOLVER    

     CHECK POINT  END OF SOLVER       

       ELAPSED USER TIME (SEC)      =  0.30000    
       ELAPSED SYSTEM TIME (SEC)    =   0.0000    
       ELAPSED TOTAL CPU TIME (SEC) =  0.30000    
       ELAPSED WALLCLOCK TIME (SEC) =          1

               CONVERGENCE CHECKS FOR EQUILIBRIUM ITERATION     1


 AVERAGE FORCE                       420.       TIME AVG. FORCE        81.0    
 LARGEST RESIDUAL FORCE              12.5       AT NODE          4   DOF  1
   INSTANCE: PANEL-1                                                                         
 LARGEST INCREMENT OF DISP.         5.680E-05   AT NODE       1210   DOF  1
   INSTANCE: PANEL-1                                                                         
 LARGEST CORRECTION TO DISP.        5.680E-05   AT NODE       1210   DOF  1
   INSTANCE: PANEL-1                                                                         
          FORCE     EQUILIBRIUM NOT ACHIEVED WITHIN TOLERANCE.

 AVERAGE MOMENT                     5.765E-02   TIME AVG. MOMENT      1.084E-02
 LARGEST RESIDUAL MOMENT            1.644E-02   AT NODE       1368   DOF  5
   INSTANCE: PANEL-1                                                                         
 LARGEST INCREMENT OF ROTATION     -5.167E-04   AT NODE          1   DOF  5
   INSTANCE: PANEL-1                                                                         
 LARGEST CORRECTION TO ROTATION    -5.167E-04   AT NODE          1   DOF  5
   INSTANCE: PANEL-1                                                                         
          MOMENT    EQUILIBRIUM NOT ACHIEVED WITHIN TOLERANCE.

  NUMBER OF EQUATIONS =    158195     NUMBER OF RHS =    2
  NUMBER OF FLOATING PT. OPERATIONS =  1.72E+10

     CHECK POINT   START OF SOLVER    

     CHECK POINT  END OF SOLVER       

       ELAPSED USER TIME (SEC)      =  0.10000    
       ELAPSED SYSTEM TIME (SEC)    =   0.0000    
       ELAPSED TOTAL CPU TIME (SEC) =  0.10000    
       ELAPSED WALLCLOCK TIME (SEC) =          1

               CONVERGENCE CHECKS FOR EQUILIBRIUM ITERATION     2


 AVERAGE FORCE                       419.       TIME AVG. FORCE        81.0    
 LARGEST RESIDUAL FORCE             9.605E-05   AT NODE        554   DOF  3
   INSTANCE: PANEL-1                                                                         
 LARGEST INCREMENT OF DISP.         5.669E-05   AT NODE       1210   DOF  1
   INSTANCE: PANEL-1                                                                         
 LARGEST CORRECTION TO DISP.        3.807E-07   AT NODE      16964   DOF  3
   INSTANCE: PANEL-1                                                                         
          THE FORCE     EQUILIBRIUM EQUATIONS HAVE CONVERGED

 AVERAGE MOMENT                     5.765E-02   TIME AVG. MOMENT      1.084E-02
 LARGEST RESIDUAL MOMENT           -9.103E-06   AT NODE        732   DOF  5
   INSTANCE: PANEL-1                                                                         
 LARGEST INCREMENT OF ROTATION     -5.153E-04   AT NODE          8   DOF  5
   INSTANCE: PANEL-1                                                                         
 LARGEST CORRECTION TO ROTATION     1.452E-06   AT NODE         11   DOF  5
   INSTANCE: PANEL-1                                                                         
          THE MOMENT    EQUILIBRIUM EQUATIONS HAVE CONVERGED
          ARC LENGTH INCREMENT MAY NOW INCREASE TO     4.38    

 ITERATION SUMMARY FOR THE INCREMENT:   2 TOTAL ITERATIONS, OF WHICH
   0 ARE SEVERE DISCONTINUITY ITERATIONS AND  2 ARE EQUILIBRIUM ITERATIONS.


                                INCREMENT    16 SUMMARY


     CURRENT LOAD PROPORTIONALITY FACTOR         0.2900    
     TOTAL ARC LENGTH    8.75    , INCREMENT OF ARC LENGTH    2.92    


  INCREMENT    17 STARTS. ATTEMPT NUMBER  1

  NUMBER OF EQUATIONS =    158195     NUMBER OF RHS =    2
  NUMBER OF FLOATING PT. OPERATIONS =  1.72E+10

     CHECK POINT   START OF SOLVER    

     CHECK POINT  END OF SOLVER       

       ELAPSED USER TIME (SEC)      =  0.40000    
       ELAPSED SYSTEM TIME (SEC)    =   0.0000    
       ELAPSED TOTAL CPU TIME (SEC) =  0.40000    
       ELAPSED WALLCLOCK TIME (SEC) =          1

               CONVERGENCE CHECKS FOR EQUILIBRIUM ITERATION     1


 AVERAGE FORCE                       616.       TIME AVG. FORCE        112.    
 LARGEST RESIDUAL FORCE              27.8       AT NODE          4   DOF  1
   INSTANCE: PANEL-1                                                                         
 LARGEST INCREMENT OF DISP.         8.484E-05   AT NODE       1210   DOF  1
   INSTANCE: PANEL-1                                                                         
 LARGEST CORRECTION TO DISP.        8.484E-05   AT NODE       1210   DOF  1
   INSTANCE: PANEL-1                                                                         
          FORCE     EQUILIBRIUM NOT ACHIEVED WITHIN TOLERANCE.

 AVERAGE MOMENT                     8.609E-02   TIME AVG. MOMENT      1.527E-02
 LARGEST RESIDUAL MOMENT            3.679E-02   AT NODE       1368   DOF  5
   INSTANCE: PANEL-1                                                                         
 LARGEST INCREMENT OF ROTATION     -7.706E-04   AT NODE          8   DOF  5
   INSTANCE: PANEL-1                                                                         
 LARGEST CORRECTION TO ROTATION    -7.706E-04   AT NODE          8   DOF  5
   INSTANCE: PANEL-1                                                                         
          MOMENT    EQUILIBRIUM NOT ACHIEVED WITHIN TOLERANCE.

  NUMBER OF EQUATIONS =    158195     NUMBER OF RHS =    2
  NUMBER OF FLOATING PT. OPERATIONS =  1.72E+10

     CHECK POINT   START OF SOLVER    

     CHECK POINT  END OF SOLVER       

       ELAPSED USER TIME (SEC)      =  0.40000    
       ELAPSED SYSTEM TIME (SEC)    =   0.0000    
       ELAPSED TOTAL CPU TIME (SEC) =  0.40000    
       ELAPSED WALLCLOCK TIME (SEC) =          1

               CONVERGENCE CHECKS FOR EQUILIBRIUM ITERATION     2


 AVERAGE FORCE                       615.       TIME AVG. FORCE        112.    
 LARGEST RESIDUAL FORCE            -5.923E-04   AT NODE          4   DOF  1
   INSTANCE: PANEL-1                                                                         
 LARGEST INCREMENT OF DISP.         8.455E-05   AT NODE       1210   DOF  1
   INSTANCE: PANEL-1                                                                         
 LARGEST CORRECTION TO DISP.        9.005E-07   AT NODE      16964   DOF  3
   INSTANCE: PANEL-1                                                                         
 ESTIMATE OF DISP.    CORRECTION   -1.922E-11
 FORCE     EQUILIB. ACCEPTED BASED ON SMALL RESIDUAL AND ESTIMATED CORRECTION

 AVERAGE MOMENT                     8.608E-02   TIME AVG. MOMENT      1.527E-02
 LARGEST RESIDUAL MOMENT           -3.385E-05   AT NODE        732   DOF  5
   INSTANCE: PANEL-1                                                                         
 LARGEST INCREMENT OF ROTATION     -7.672E-04   AT NODE          8   DOF  5
   INSTANCE: PANEL-1                                                                         
 LARGEST CORRECTION TO ROTATION     3.545E-06   AT NODE          5   DOF  5
   INSTANCE: PANEL-1                                                                         
          THE MOMENT    EQUILIBRIUM EQUATIONS HAVE CONVERGED
          ARC LENGTH INCREMENT MAY NOW INCREASE TO     6.57    

 ITERATION SUMMARY FOR THE INCREMENT:   2 TOTAL ITERATIONS, OF WHICH
   0 ARE SEVERE DISCONTINUITY ITERATIONS AND  2 ARE EQUILIBRIUM ITERATIONS.


                                INCREMENT    17 SUMMARY


     CURRENT LOAD PROPORTIONALITY FACTOR         0.4337    
     TOTAL ARC LENGTH    13.1    , INCREMENT OF ARC LENGTH    4.38    


  INCREMENT    18 STARTS. ATTEMPT NUMBER  1

  NUMBER OF EQUATIONS =    158195     NUMBER OF RHS =    2
  NUMBER OF FLOATING PT. OPERATIONS =  1.72E+10

     CHECK POINT   START OF SOLVER    

     CHECK POINT  END OF SOLVER       

       ELAPSED USER TIME (SEC)      =  0.50000    
       ELAPSED SYSTEM TIME (SEC)    =   0.0000    
       ELAPSED TOTAL CPU TIME (SEC) =  0.50000    
       ELAPSED WALLCLOCK TIME (SEC) =          1

               CONVERGENCE CHECKS FOR EQUILIBRIUM ITERATION     1


 AVERAGE FORCE                       903.       TIME AVG. FORCE        156.    
 LARGEST RESIDUAL FORCE              61.3       AT NODE          4   DOF  1
   INSTANCE: PANEL-1                                                                         
 LARGEST INCREMENT OF DISP.         1.263E-04   AT NODE       1210   DOF  1
   INSTANCE: PANEL-1                                                                         
 LARGEST CORRECTION TO DISP.        1.263E-04   AT NODE       1210   DOF  1
   INSTANCE: PANEL-1                                                                         
          FORCE     EQUILIBRIUM NOT ACHIEVED WITHIN TOLERANCE.

 AVERAGE MOMENT                     0.129       TIME AVG. MOMENT      2.156E-02
 LARGEST RESIDUAL MOMENT            8.204E-02   AT NODE       1686   DOF  5
   INSTANCE: PANEL-1                                                                         
 LARGEST INCREMENT OF ROTATION     -1.145E-03   AT NODE          1   DOF  5
   INSTANCE: PANEL-1                                                                         
 LARGEST CORRECTION TO ROTATION    -1.145E-03   AT NODE          1   DOF  5
   INSTANCE: PANEL-1                                                                         
          MOMENT    EQUILIBRIUM NOT ACHIEVED WITHIN TOLERANCE.

  NUMBER OF EQUATIONS =    158195     NUMBER OF RHS =    2
  NUMBER OF FLOATING PT. OPERATIONS =  1.72E+10

     CHECK POINT   START OF SOLVER    

     CHECK POINT  END OF SOLVER       

       ELAPSED USER TIME (SEC)      =  0.40000    
       ELAPSED SYSTEM TIME (SEC)    =   0.0000    
       ELAPSED TOTAL CPU TIME (SEC) =  0.40000    
       ELAPSED WALLCLOCK TIME (SEC) =          1

               CONVERGENCE CHECKS FOR EQUILIBRIUM ITERATION     2


 AVERAGE FORCE                       900.       TIME AVG. FORCE        156.    
 LARGEST RESIDUAL FORCE            -5.936E-03   AT NODE          4   DOF  1
   INSTANCE: PANEL-1                                                                         
 LARGEST INCREMENT OF DISP.         1.256E-04   AT NODE       1210   DOF  1
   INSTANCE: PANEL-1                                                                         
 LARGEST CORRECTION TO DISP.        2.180E-06   AT NODE      16964   DOF  3
   INSTANCE: PANEL-1                                                                         
 ESTIMATE OF DISP.    CORRECTION   -2.112E-10
 FORCE     EQUILIB. ACCEPTED BASED ON SMALL RESIDUAL AND ESTIMATED CORRECTION

 AVERAGE MOMENT                     0.129       TIME AVG. MOMENT      2.156E-02
 LARGEST RESIDUAL MOMENT            1.317E-04   AT NODE        169   DOF  5
   INSTANCE: PANEL-1                                                                         
 LARGEST INCREMENT OF ROTATION     -1.136E-03   AT NODE          1   DOF  5
   INSTANCE: PANEL-1                                                                         
 LARGEST CORRECTION TO ROTATION     9.012E-06   AT NODE         11   DOF  5
   INSTANCE: PANEL-1                                                                         
          MOMENT    EQUILIBRIUM NOT ACHIEVED WITHIN TOLERANCE.

  NUMBER OF EQUATIONS =    158195     NUMBER OF RHS =    2
  NUMBER OF FLOATING PT. OPERATIONS =  1.72E+10

     CHECK POINT   START OF SOLVER    

     CHECK POINT  END OF SOLVER       

       ELAPSED USER TIME (SEC)      =  0.40000    
       ELAPSED SYSTEM TIME (SEC)    =   0.0000    
       ELAPSED TOTAL CPU TIME (SEC) =  0.40000    
       ELAPSED WALLCLOCK TIME (SEC) =          1

               CONVERGENCE CHECKS FOR EQUILIBRIUM ITERATION     3


 AVERAGE FORCE                       900.       TIME AVG. FORCE        156.    
 LARGEST RESIDUAL FORCE             3.347E-05   AT NODE          4   DOF  1
   INSTANCE: PANEL-1                                                                         
 LARGEST INCREMENT OF DISP.         1.256E-04   AT NODE       1210   DOF  1
   INSTANCE: PANEL-1                                                                         
 LARGEST CORRECTION TO DISP.       -5.393E-10   AT NODE      16964   DOF  3
   INSTANCE: PANEL-1                                                                         
          THE FORCE     EQUILIBRIUM EQUATIONS HAVE CONVERGED

 AVERAGE MOMENT                     0.129       TIME AVG. MOMENT      2.156E-02
 LARGEST RESIDUAL MOMENT            3.804E-08   AT NODE          7   DOF  5
   INSTANCE: PANEL-1                                                                         
 LARGEST INCREMENT OF ROTATION     -1.136E-03   AT NODE          1   DOF  5
   INSTANCE: PANEL-1                                                                         
 LARGEST CORRECTION TO ROTATION     3.732E-09   AT NODE        376   DOF  5
   INSTANCE: PANEL-1                                                                         
          THE MOMENT    EQUILIBRIUM EQUATIONS HAVE CONVERGED
          ARC LENGTH INCREMENT MAY NOW INCREASE TO     9.85    

 ITERATION SUMMARY FOR THE INCREMENT:   3 TOTAL ITERATIONS, OF WHICH
   0 ARE SEVERE DISCONTINUITY ITERATIONS AND  3 ARE EQUILIBRIUM ITERATIONS.


[...]


                                INCREMENT    47 SUMMARY


     CURRENT LOAD PROPORTIONALITY FACTOR          13.60    
     TOTAL ARC LENGTH   1.787E+04, INCREMENT OF ARC LENGTH    85.3    


  INCREMENT    48 STARTS. ATTEMPT NUMBER  1

  NUMBER OF EQUATIONS =    158195     NUMBER OF RHS =    2
  NUMBER OF FLOATING PT. OPERATIONS =  1.72E+10

     CHECK POINT   START OF SOLVER    

     CHECK POINT  END OF SOLVER       

       ELAPSED USER TIME (SEC)      =  0.10000    
       ELAPSED SYSTEM TIME (SEC)    =   0.0000    
       ELAPSED TOTAL CPU TIME (SEC) =  0.10000    
       ELAPSED WALLCLOCK TIME (SEC) =          1
 

 ***WARNING: THE SYSTEM MATRIX HAS 2 NEGATIVE EIGENVALUES.
             EXPLANATIONS ARE SUGGESTED AFTER THE FIRST OCCURRENCE OF THIS MESSAGE.

               CONVERGENCE CHECKS FOR EQUILIBRIUM ITERATION     1


 AVERAGE FORCE                      3.991E+04   TIME AVG. FORCE       1.058E+04
 LARGEST RESIDUAL FORCE            -1.406E+03   AT NODE          4   DOF  1
   INSTANCE: PANEL-1                                                                         
 LARGEST INCREMENT OF DISP.         5.450E-04   AT NODE       6832   DOF  3
   INSTANCE: PANEL-1                                                                         
 LARGEST CORRECTION TO DISP.        5.450E-04   AT NODE       6832   DOF  3
   INSTANCE: PANEL-1                                                                         
          FORCE     EQUILIBRIUM NOT ACHIEVED WITHIN TOLERANCE.

 AVERAGE MOMENT                      111.       TIME AVG. MOMENT       23.4    
 LARGEST RESIDUAL MOMENT           -0.258       AT NODE       6104   DOF  6
   INSTANCE: PANEL-1                                                                         
 LARGEST INCREMENT OF ROTATION     -2.003E-03   AT NODE        231   DOF  4
   INSTANCE: PANEL-1                                                                         
 LARGEST CORRECTION TO ROTATION    -2.003E-03   AT NODE        231   DOF  4
   INSTANCE: PANEL-1                                                                         
          MOMENT    EQUILIBRIUM NOT ACHIEVED WITHIN TOLERANCE.

  NUMBER OF EQUATIONS =    158195     NUMBER OF RHS =    2
  NUMBER OF FLOATING PT. OPERATIONS =  1.72E+10

     CHECK POINT   START OF SOLVER    

     CHECK POINT  END OF SOLVER       

       ELAPSED USER TIME (SEC)      =  0.20000    
       ELAPSED SYSTEM TIME (SEC)    =   0.0000    
       ELAPSED TOTAL CPU TIME (SEC) =  0.20000    
       ELAPSED WALLCLOCK TIME (SEC) =          1
 

 ***WARNING: THE SYSTEM MATRIX HAS 2 NEGATIVE EIGENVALUES.
             EXPLANATIONS ARE SUGGESTED AFTER THE FIRST OCCURRENCE OF THIS MESSAGE.

               CONVERGENCE CHECKS FOR EQUILIBRIUM ITERATION     2


 AVERAGE FORCE                      3.991E+04   TIME AVG. FORCE       1.058E+04
 LARGEST RESIDUAL FORCE              1.67       AT NODE          4   DOF  1
   INSTANCE: PANEL-1                                                                         
 LARGEST INCREMENT OF DISP.         5.449E-04   AT NODE      22775   DOF  3
   INSTANCE: PANEL-1                                                                         
 LARGEST CORRECTION TO DISP.       -1.344E-06   AT NODE      14154   DOF  3
   INSTANCE: PANEL-1                                                                         
          THE FORCE     EQUILIBRIUM EQUATIONS HAVE CONVERGED

 AVERAGE MOMENT                      111.       TIME AVG. MOMENT       23.4    
 LARGEST RESIDUAL MOMENT            5.273E-03   AT NODE       6064   DOF  6
   INSTANCE: PANEL-1                                                                         
 LARGEST INCREMENT OF ROTATION     -2.001E-03   AT NODE        231   DOF  4
   INSTANCE: PANEL-1                                                                         
 LARGEST CORRECTION TO ROTATION    -3.600E-05   AT NODE        815   DOF  4
   INSTANCE: PANEL-1                                                                         
          ROTATION CORRECTION TOO LARGE COMPARED TO ROTATION INCREMENT

  NUMBER OF EQUATIONS =    158195     NUMBER OF RHS =    2
  NUMBER OF FLOATING PT. OPERATIONS =  1.72E+10

     CHECK POINT   START OF SOLVER    

     CHECK POINT  END OF SOLVER       

       ELAPSED USER TIME (SEC)      =  0.20000    
       ELAPSED SYSTEM TIME (SEC)    =   0.0000    
       ELAPSED TOTAL CPU TIME (SEC) =  0.20000    
       ELAPSED WALLCLOCK TIME (SEC) =          0
 

 ***WARNING: THE SYSTEM MATRIX HAS 2 NEGATIVE EIGENVALUES.
             EXPLANATIONS ARE SUGGESTED AFTER THE FIRST OCCURRENCE OF THIS MESSAGE.

               CONVERGENCE CHECKS FOR EQUILIBRIUM ITERATION     3


 AVERAGE FORCE                      3.991E+04   TIME AVG. FORCE       1.058E+04
 LARGEST RESIDUAL FORCE             2.672E-02   AT NODE          4   DOF  1
   INSTANCE: PANEL-1                                                                         
 LARGEST INCREMENT OF DISP.         5.449E-04   AT NODE       6832   DOF  3
   INSTANCE: PANEL-1                                                                         
 LARGEST CORRECTION TO DISP.        5.265E-08   AT NODE       5659   DOF  3
   INSTANCE: PANEL-1                                                                         
          THE FORCE     EQUILIBRIUM EQUATIONS HAVE CONVERGED

 AVERAGE MOMENT                      111.       TIME AVG. MOMENT       23.4    
 LARGEST RESIDUAL MOMENT            2.091E-04   AT NODE       6104   DOF  6
   INSTANCE: PANEL-1                                                                         
 LARGEST INCREMENT OF ROTATION      2.001E-03   AT NODE        878   DOF  4
   INSTANCE: PANEL-1                                                                         
 LARGEST CORRECTION TO ROTATION    -1.394E-06   AT NODE        254   DOF  4
   INSTANCE: PANEL-1                                                                         
          THE MOMENT    EQUILIBRIUM EQUATIONS HAVE CONVERGED
          ARC LENGTH INCREMENT MAY NOW INCREASE TO     192.    

 ITERATION SUMMARY FOR THE INCREMENT:   3 TOTAL ITERATIONS, OF WHICH
   0 ARE SEVERE DISCONTINUITY ITERATIONS AND  3 ARE EQUILIBRIUM ITERATIONS.


                                INCREMENT    48 SUMMARY


     CURRENT LOAD PROPORTIONALITY FACTOR          13.61    
     TOTAL ARC LENGTH   1.800E+04, INCREMENT OF ARC LENGTH    128.    


  INCREMENT    49 STARTS. ATTEMPT NUMBER  1

  NUMBER OF EQUATIONS =    158195     NUMBER OF RHS =    2
  NUMBER OF FLOATING PT. OPERATIONS =  1.72E+10

     CHECK POINT   START OF SOLVER    

     CHECK POINT  END OF SOLVER       

       ELAPSED USER TIME (SEC)      =  0.40000    
       ELAPSED SYSTEM TIME (SEC)    =   0.0000    
       ELAPSED TOTAL CPU TIME (SEC) =  0.40000    
       ELAPSED WALLCLOCK TIME (SEC) =          1
 

 ***WARNING: THE SYSTEM MATRIX HAS 2 NEGATIVE EIGENVALUES.
             EXPLANATIONS ARE SUGGESTED AFTER THE FIRST OCCURRENCE OF THIS MESSAGE.

               CONVERGENCE CHECKS FOR EQUILIBRIUM ITERATION     1


 AVERAGE FORCE                      4.002E+04   TIME AVG. FORCE       1.118E+04
 LARGEST RESIDUAL FORCE            -3.067E+03   AT NODE          4   DOF  1
   INSTANCE: PANEL-1                                                                         
 LARGEST INCREMENT OF DISP.         8.175E-04   AT NODE       6832   DOF  3
   INSTANCE: PANEL-1                                                                         
 LARGEST CORRECTION TO DISP.        8.175E-04   AT NODE       6832   DOF  3
   INSTANCE: PANEL-1                                                                         
          FORCE     EQUILIBRIUM NOT ACHIEVED WITHIN TOLERANCE.

 AVERAGE MOMENT                      111.       TIME AVG. MOMENT       25.2    
 LARGEST RESIDUAL MOMENT            0.386       AT NODE       6068   DOF  5
   INSTANCE: PANEL-1                                                                         
 LARGEST INCREMENT OF ROTATION      3.040E-03   AT NODE        878   DOF  4
   INSTANCE: PANEL-1                                                                         
 LARGEST CORRECTION TO ROTATION     3.040E-03   AT NODE        878   DOF  4
   INSTANCE: PANEL-1                                                                         
          MOMENT    EQUILIBRIUM NOT ACHIEVED WITHIN TOLERANCE.

  NUMBER OF EQUATIONS =    158195     NUMBER OF RHS =    2
  NUMBER OF FLOATING PT. OPERATIONS =  1.72E+10

     CHECK POINT   START OF SOLVER    

     CHECK POINT  END OF SOLVER       

       ELAPSED USER TIME (SEC)      =  0.20000    
       ELAPSED SYSTEM TIME (SEC)    =   0.0000    
       ELAPSED TOTAL CPU TIME (SEC) =  0.20000    
       ELAPSED WALLCLOCK TIME (SEC) =          1
 

 ***WARNING: THE SYSTEM MATRIX HAS 2 NEGATIVE EIGENVALUES.
             EXPLANATIONS ARE SUGGESTED AFTER THE FIRST OCCURRENCE OF THIS MESSAGE.

               CONVERGENCE CHECKS FOR EQUILIBRIUM ITERATION     2


 AVERAGE FORCE                      4.002E+04   TIME AVG. FORCE       1.118E+04
 LARGEST RESIDUAL FORCE              2.63       AT NODE          4   DOF  1
   INSTANCE: PANEL-1                                                                         
 LARGEST INCREMENT OF DISP.         8.173E-04   AT NODE      22775   DOF  3
   INSTANCE: PANEL-1                                                                         
 LARGEST CORRECTION TO DISP.       -2.600E-06   AT NODE       5526   DOF  3
   INSTANCE: PANEL-1                                                                         
          THE FORCE     EQUILIBRIUM EQUATIONS HAVE CONVERGED

 AVERAGE MOMENT                      111.       TIME AVG. MOMENT       25.2    
 LARGEST RESIDUAL MOMENT            9.565E-03   AT NODE       5810   DOF  6
   INSTANCE: PANEL-1                                                                         
 LARGEST INCREMENT OF ROTATION     -3.051E-03   AT NODE        231   DOF  4
   INSTANCE: PANEL-1                                                                         
 LARGEST CORRECTION TO ROTATION     6.379E-05   AT NODE        238   DOF  4
   INSTANCE: PANEL-1                                                                         
          ROTATION CORRECTION TOO LARGE COMPARED TO ROTATION INCREMENT

  NUMBER OF EQUATIONS =    158195     NUMBER OF RHS =    2
  NUMBER OF FLOATING PT. OPERATIONS =  1.72E+10

     CHECK POINT   START OF SOLVER    

     CHECK POINT  END OF SOLVER       

       ELAPSED USER TIME (SEC)      =  0.20000    
       ELAPSED SYSTEM TIME (SEC)    =   0.0000    
       ELAPSED TOTAL CPU TIME (SEC) =  0.20000    
       ELAPSED WALLCLOCK TIME (SEC) =          1
 

 ***WARNING: THE SYSTEM MATRIX HAS 2 NEGATIVE EIGENVALUES.
             EXPLANATIONS ARE SUGGESTED AFTER THE FIRST OCCURRENCE OF THIS MESSAGE.

               CONVERGENCE CHECKS FOR EQUILIBRIUM ITERATION     3


 AVERAGE FORCE                      4.002E+04   TIME AVG. FORCE       1.118E+04
 LARGEST RESIDUAL FORCE            -4.501E-02   AT NODE          3   DOF  1
   INSTANCE: PANEL-1                                                                         
 LARGEST INCREMENT OF DISP.         8.173E-04   AT NODE      22775   DOF  3
   INSTANCE: PANEL-1                                                                         
 LARGEST CORRECTION TO DISP.        7.075E-08   AT NODE      14263   DOF  3
   INSTANCE: PANEL-1                                                                         
          THE FORCE     EQUILIBRIUM EQUATIONS HAVE CONVERGED

 AVERAGE MOMENT                      111.       TIME AVG. MOMENT       25.2    
 LARGEST RESIDUAL MOMENT            3.357E-04   AT NODE       6104   DOF  6
   INSTANCE: PANEL-1                                                                         
 LARGEST INCREMENT OF ROTATION      3.050E-03   AT NODE        878   DOF  4
   INSTANCE: PANEL-1                                                                         
 LARGEST CORRECTION TO ROTATION     1.989E-06   AT NODE        855   DOF  4
   INSTANCE: PANEL-1                                                                         
          THE MOMENT    EQUILIBRIUM EQUATIONS HAVE CONVERGED
          ARC LENGTH INCREMENT MAY NOW INCREASE TO     288.    

 ITERATION SUMMARY FOR THE INCREMENT:   3 TOTAL ITERATIONS, OF WHICH
   0 ARE SEVERE DISCONTINUITY ITERATIONS AND  3 ARE EQUILIBRIUM ITERATIONS.


                                INCREMENT    49 SUMMARY


     CURRENT LOAD PROPORTIONALITY FACTOR          13.62    
     TOTAL ARC LENGTH   1.819E+04, INCREMENT OF ARC LENGTH    192.    


  INCREMENT    50 STARTS. ATTEMPT NUMBER  1

  NUMBER OF EQUATIONS =    158195     NUMBER OF RHS =    2
  NUMBER OF FLOATING PT. OPERATIONS =  1.72E+10

     CHECK POINT   START OF SOLVER    

     CHECK POINT  END OF SOLVER       

       ELAPSED USER TIME (SEC)      =  0.40000    
       ELAPSED SYSTEM TIME (SEC)    =  0.10000    
       ELAPSED TOTAL CPU TIME (SEC) =  0.50000    
       ELAPSED WALLCLOCK TIME (SEC) =          1
 

 ***WARNING: THE SYSTEM MATRIX HAS 2 NEGATIVE EIGENVALUES.
             EXPLANATIONS ARE SUGGESTED AFTER THE FIRST OCCURRENCE OF THIS MESSAGE.

               CONVERGENCE CHECKS FOR EQUILIBRIUM ITERATION     1


 AVERAGE FORCE                      4.018E+04   TIME AVG. FORCE       1.176E+04
 LARGEST RESIDUAL FORCE            -6.745E+03   AT NODE          4   DOF  1
   INSTANCE: PANEL-1                                                                         
 LARGEST INCREMENT OF DISP.         1.226E-03   AT NODE      22775   DOF  3
   INSTANCE: PANEL-1                                                                         
 LARGEST CORRECTION TO DISP.        1.226E-03   AT NODE      22775   DOF  3
   INSTANCE: PANEL-1                                                                         
          FORCE     EQUILIBRIUM NOT ACHIEVED WITHIN TOLERANCE.

 AVERAGE MOMENT                      111.       TIME AVG. MOMENT       26.9    
 LARGEST RESIDUAL MOMENT            0.706       AT NODE       6068   DOF  5
   INSTANCE: PANEL-1                                                                         
 LARGEST INCREMENT OF ROTATION      4.661E-03   AT NODE        878   DOF  4
   INSTANCE: PANEL-1                                                                         
 LARGEST CORRECTION TO ROTATION     4.661E-03   AT NODE        878   DOF  4
   INSTANCE: PANEL-1                                                                         
          MOMENT    EQUILIBRIUM NOT ACHIEVED WITHIN TOLERANCE.

  NUMBER OF EQUATIONS =    158195     NUMBER OF RHS =    2
  NUMBER OF FLOATING PT. OPERATIONS =  1.72E+10

     CHECK POINT   START OF SOLVER    

     CHECK POINT  END OF SOLVER       

       ELAPSED USER TIME (SEC)      =  0.10000    
       ELAPSED SYSTEM TIME (SEC)    =   0.0000    
       ELAPSED TOTAL CPU TIME (SEC) =  0.10000    
       ELAPSED WALLCLOCK TIME (SEC) =          1
 

 ***WARNING: THE SYSTEM MATRIX HAS 2 NEGATIVE EIGENVALUES.
             EXPLANATIONS ARE SUGGESTED AFTER THE FIRST OCCURRENCE OF THIS MESSAGE.

               CONVERGENCE CHECKS FOR EQUILIBRIUM ITERATION     2


 AVERAGE FORCE                      4.019E+04   TIME AVG. FORCE       1.176E+04
 LARGEST RESIDUAL FORCE             -4.25       AT NODE          3   DOF  1
   INSTANCE: PANEL-1                                                                         
 LARGEST INCREMENT OF DISP.         1.226E-03   AT NODE      22775   DOF  3
   INSTANCE: PANEL-1                                                                         
 LARGEST CORRECTION TO DISP.       -1.111E-05   AT NODE      14098   DOF  3
   INSTANCE: PANEL-1                                                                         
          THE FORCE     EQUILIBRIUM EQUATIONS HAVE CONVERGED

 AVERAGE MOMENT                      111.       TIME AVG. MOMENT       26.9    
 LARGEST RESIDUAL MOMENT           -2.040E-02   AT NODE       5768   DOF  6
   INSTANCE: PANEL-1                                                                         
 LARGEST INCREMENT OF ROTATION     -4.728E-03   AT NODE        231   DOF  4
   INSTANCE: PANEL-1                                                                         
 LARGEST CORRECTION TO ROTATION    -2.814E-04   AT NODE        871   DOF  4
   INSTANCE: PANEL-1                                                                         
          ROTATION CORRECTION TOO LARGE COMPARED TO ROTATION INCREMENT

  NUMBER OF EQUATIONS =    158195     NUMBER OF RHS =    2
  NUMBER OF FLOATING PT. OPERATIONS =  1.72E+10

     CHECK POINT   START OF SOLVER    

     CHECK POINT  END OF SOLVER       

       ELAPSED USER TIME (SEC)      =  0.40000    
       ELAPSED SYSTEM TIME (SEC)    =   0.0000    
       ELAPSED TOTAL CPU TIME (SEC) =  0.40000    
       ELAPSED WALLCLOCK TIME (SEC) =          1
 

 ***WARNING: THE SYSTEM MATRIX HAS 2 NEGATIVE EIGENVALUES.
             EXPLANATIONS ARE SUGGESTED AFTER THE FIRST OCCURRENCE OF THIS MESSAGE.

               CONVERGENCE CHECKS FOR EQUILIBRIUM ITERATION     3


 AVERAGE FORCE                      4.019E+04   TIME AVG. FORCE       1.176E+04
 LARGEST RESIDUAL FORCE            -7.873E-02   AT NODE          3   DOF  1
   INSTANCE: PANEL-1                                                                         
 LARGEST INCREMENT OF DISP.         1.226E-03   AT NODE      22775   DOF  3
   INSTANCE: PANEL-1                                                                         
 LARGEST CORRECTION TO DISP.       -1.845E-07   AT NODE      13947   DOF  3
   INSTANCE: PANEL-1                                                                         
          THE FORCE     EQUILIBRIUM EQUATIONS HAVE CONVERGED

 AVERAGE MOMENT                      111.       TIME AVG. MOMENT       26.9    
 LARGEST RESIDUAL MOMENT           -5.978E-04   AT NODE      14712   DOF  6
   INSTANCE: PANEL-1                                                                         
 LARGEST INCREMENT OF ROTATION      4.726E-03   AT NODE        878   DOF  4
   INSTANCE: PANEL-1                                                                         
 LARGEST CORRECTION TO ROTATION    -3.622E-06   AT NODE        874   DOF  4
   INSTANCE: PANEL-1                                                                         
          THE MOMENT    EQUILIBRIUM EQUATIONS HAVE CONVERGED
          ARC LENGTH INCREMENT MAY NOW INCREASE TO     432.    

 ITERATION SUMMARY FOR THE INCREMENT:   3 TOTAL ITERATIONS, OF WHICH
   0 ARE SEVERE DISCONTINUITY ITERATIONS AND  3 ARE EQUILIBRIUM ITERATIONS.


                                INCREMENT    50 SUMMARY


     CURRENT LOAD PROPORTIONALITY FACTOR          13.64    
     TOTAL ARC LENGTH   1.848E+04, INCREMENT OF ARC LENGTH    288.    


     THE NUMBER OF INCS ON THE *STEP CARD HAS BEEN COMPLETED - THE STEP ENDS



     ANALYSIS SUMMARY:
     TOTAL OF         50  INCREMENTS
                       4  CUTBACKS IN AUTOMATIC INCREMENTATION
                     176  ITERATIONS INCLUDING CONTACT ITERATIONS IF PRESENT
                     176  PASSES THROUGH THE EQUATION SOLVER OF WHICH 
                     176  INVOLVE MATRIX DECOMPOSITION, INCLUDING
                       0  DECOMPOSITION(S) OF THE MASS MATRIX
                       1  REORDERING OF EQUATIONS TO MINIMIZE WAVEFRONT
                       0  ADDITIONAL RESIDUAL EVALUATIONS FOR LINE SEARCHES
                       0  ADDITIONAL OPERATOR EVALUATIONS FOR LINE SEARCHES
                       0  WARNING MESSAGES DURING USER INPUT PROCESSING
                      92  WARNING MESSAGES DURING ANALYSIS
                       0  ANALYSIS WARNINGS ARE NUMERICAL PROBLEM MESSAGES
                      92  ANALYSIS WARNINGS ARE NEGATIVE EIGENVALUE MESSAGES
                       0  ERROR MESSAGES



     JOB TIME SUMMARY
       USER TIME (SEC)      =   88.200    
       SYSTEM TIME (SEC)    =   2.0000    
       TOTAL CPU TIME (SEC) =   90.200    
       WALLCLOCK TIME (SEC) =        271
