1

   Abaqus 2020                                  Date 09-Sep-2025   Time 15:32:29
   For use by UNIVERSITY OF BRITISH COLUMBIA under license from Dassault Systemes or its subsidiary.

                                                                                 
                                                                                 
 STEP    1     INCREMENT     1     STEP TIME    0.00    


                        S T E P       1     S T A T I C   A N A L Y S I S


                                                                                          

     AUTOMATIC LOAD CONTROL WITH -
          A SUGGESTED INITIAL INCREMENT IN ARC LENGTH           1.000E-02
          AND A TOTAL ARC LENGTH SCALE FACTOR OF                 30.0    
          THE MINIMUM ARC LENGTH INCREMENT ALLOWED IS           1.000E-08
          THE MAXIMUM ARC LENGTH INCREMENT ALLOWED IS           1.000E+36

     LINEAR EQUATION SOLVER TYPE         DIRECT SPARSE

     MODIFIED RIKS METHOD IS USED - AMPLITUDE REFERENCES ARE IGNORED

 CONVERGENCE TOLERANCE PARAMETERS FOR FORCE    
     CRITERION FOR RESIDUAL FORCE     FOR A NONLINEAR PROBLEM          5.000E-03
     CRITERION FOR DISP.    CORRECTION IN A NONLINEAR PROBLEM          1.000E-02
     INITIAL VALUE OF TIME AVERAGE FORCE                               1.000E-02
     AVERAGE FORCE     IS TIME AVERAGE FORCE    
     ALTERNATE CRIT. FOR RESIDUAL FORCE     FOR A NONLINEAR PROBLEM    2.000E-02
     CRITERION FOR ZERO FORCE     RELATIVE TO TIME AVRG. FORCE         1.000E-05
     CRITERION FOR RESIDUAL FORCE     WHEN THERE IS ZERO FLUX          1.000E-05
     CRITERION FOR DISP.    CORRECTION WHEN THERE IS ZERO FLUX         1.000E-03
     CRITERION FOR RESIDUAL FORCE     FOR A LINEAR INCREMENT           1.000E-08
     FIELD CONVERSION RATIO                                             1.00    
     CRITERION FOR ZERO FORCE     REL. TO TIME AVRG. MAX. FORCE        1.000E-05
     CRITERION FOR ZERO DISP.    RELATIVE TO CHARACTERISTIC LENGTH     1.000E-08

 CONVERGENCE TOLERANCE PARAMETERS FOR MOMENT   
     CRITERION FOR RESIDUAL MOMENT    FOR A NONLINEAR PROBLEM          5.000E-03
     CRITERION FOR ROTATION CORRECTION IN A NONLINEAR PROBLEM          1.000E-02
     INITIAL VALUE OF TIME AVERAGE MOMENT                              1.000E-02
     AVERAGE MOMENT    IS TIME AVERAGE MOMENT   
     ALTERNATE CRIT. FOR RESIDUAL MOMENT    FOR A NONLINEAR PROBLEM    2.000E-02
     CRITERION FOR ZERO MOMENT    RELATIVE TO TIME AVRG. MOMENT        1.000E-05
     CRITERION FOR RESIDUAL MOMENT    WHEN THERE IS ZERO FLUX          1.000E-05
     CRITERION FOR ROTATION CORRECTION WHEN THERE IS ZERO FLUX         1.000E-03
     CRITERION FOR RESIDUAL MOMENT    FOR A LINEAR INCREMENT           1.000E-08
     FIELD CONVERSION RATIO                                             1.00    
     CRITERION FOR ZERO MOMENT    REL. TO TIME AVRG. MAX. MOMENT       1.000E-05

     VOLUMETRIC STRAIN COMPATIBILITY TOLERANCE FOR HYBRID SOLIDS       1.000E-05
     AXIAL STRAIN COMPATIBILITY TOLERANCE FOR HYBRID BEAMS             1.000E-05
     TRANS. SHEAR STRAIN COMPATIBILITY TOLERANCE FOR HYBRID BEAMS      1.000E-05
     SOFT CONTACT CONSTRAINT COMPATIBILITY TOLERANCE FOR P>P0          5.000E-03
     SOFT CONTACT CONSTRAINT COMPATIBILITY TOLERANCE FOR P=0.0         0.100    
     CONTACT FORCE ERROR TOLERANCE FOR CONVERT SDI=YES                 1.00    
     DISPLACEMENT COMPATIBILITY TOLERANCE FOR DCOUP ELEMENTS           1.000E-05
     ROTATION COMPATIBILITY TOLERANCE FOR DCOUP ELEMENTS               1.000E-05

 EQUILIBRIUM WILL BE CHECKED FOR SEVERE DISCONTINUITY ITERATIONS

 TIME INCREMENTATION CONTROL PARAMETERS:
     FIRST EQUILIBRIUM ITERATION FOR CONSECUTIVE DIVERGENCE CHECK              4
     EQUILIBRIUM ITERATION AT WHICH LOG. CONVERGENCE RATE CHECK BEGINS         8
     EQUILIBRIUM ITERATION AFTER WHICH ALTERNATE RESIDUAL IS USED              9
     MAXIMUM EQUILIBRIUM ITERATIONS ALLOWED                                   16
     EQUILIBRIUM ITERATION COUNT FOR CUT-BACK IN NEXT INCREMENT               10
     MAXIMUM EQUILIB. ITERS IN TWO INCREMENTS FOR TIME INCREMENT INCREASE      4
     MAXIMUM ITERATIONS FOR SEVERE DISCONTINUITIES                            50
     MAXIMUM ATTEMPTS ALLOWED IN AN INCREMENT                                  5
     MAXIMUM DISCON. ITERS IN TWO INCREMENTS FOR TIME INCREMENT INCREASE      50
     MAXIMUM CONTACT AUGMENTATIONS FOR *SURFACE BEHAVIOR,AUGMENTED LAGRANGE   50
     CUT-BACK FACTOR AFTER DIVERGENCE                                 0.2500    
     CUT-BACK FACTOR FOR TOO SLOW CONVERGENCE                         0.5000    
     CUT-BACK FACTOR AFTER TOO MANY EQUILIBRIUM ITERATIONS            0.7500    
     CUT-BACK FACTOR AFTER TOO MANY SEVERE DISCONTINUITY ITERATIONS   0.2500    
     CUT-BACK FACTOR AFTER PROBLEMS IN ELEMENT ASSEMBLY               0.2500    
     INCREASE FACTOR AFTER TWO INCREMENTS THAT CONVERGE QUICKLY        1.500    
     MAX. TIME INCREMENT INCREASE FACTOR ALLOWED                       1.500    
     MAX. TIME INCREMENT INCREASE FACTOR ALLOWED (DYNAMICS)            1.250    
     MAX. TIME INCREMENT INCREASE FACTOR ALLOWED (DIFFUSION)           2.000    
     MINIMUM TIME INCREMENT RATIO FOR EXTRAPOLATION TO OCCUR          0.1000    
     MAX. RATIO OF TIME INCREMENT TO STABILITY LIMIT                   1.000    
     FRACTION OF STABILITY LIMIT FOR NEW TIME INCREMENT               0.9500    
     TIME INCREMENT INCREASE FACTOR BEFORE A TIME POINT                1.000    
     GLOBAL STABILIZATION CONTROL IS NOT USED

          PRINT OF INCREMENT NUMBER, TIME, ETC., EVERY    1  INCREMENTS

     THE MAXIMUM NUMBER OF INCREMENTS IN THIS STEP IS                      50

          LARGE DISPLACEMENT THEORY WILL BE USED

     LINEAR EXTRAPOLATION WILL BE USED

     CHARACTERISTIC ELEMENT LENGTH     2.026E-02

     DETAILS REGARDING ACTUAL SOLUTION WAVEFRONT REQUESTED

     DETAILED OUTPUT OF DIAGNOSTICS TO DATABASE REQUESTED

     PRINT OF INCREMENT NUMBER, TIME, ETC., TO THE MESSAGE FILE EVERY     1  INCREMENTS

     COLLECTING MODEL CONSTRAINT INFORMATION FOR OVERCONSTRAINT CHECKS

     COLLECTING STEP CONSTRAINT INFORMATION FOR OVERCONSTRAINT CHECKS


  INCREMENT     1 STARTS. ATTEMPT NUMBER  1

  NUMBER OF EQUATIONS =    172691     NUMBER OF RHS =    2
  NUMBER OF FLOATING PT. OPERATIONS =  1.87E+10

     CHECK POINT   START OF SOLVER    

     CHECK POINT  END OF SOLVER       

       ELAPSED USER TIME (SEC)      =  0.60000    
       ELAPSED SYSTEM TIME (SEC)    =  0.10000    
       ELAPSED TOTAL CPU TIME (SEC) =  0.70000    
       ELAPSED WALLCLOCK TIME (SEC) =          1

               CONVERGENCE CHECKS FOR EQUILIBRIUM ITERATION     1


 AVERAGE FORCE                      0.324       TIME AVG. FORCE       0.324    
 LARGEST RESIDUAL FORCE             1.007E-04   AT NODE       1226   DOF  1
   INSTANCE: PANEL-1                                                                         
 LARGEST INCREMENT OF DISP.         1.942E-07   AT NODE       1226   DOF  1
   INSTANCE: PANEL-1                                                                         
 LARGEST CORRECTION TO DISP.        1.942E-07   AT NODE       1226   DOF  1
   INSTANCE: PANEL-1                                                                         
 ESTIMATE OF DISP.    CORRECTION    5.865E-14
 FORCE     EQUILIB. ACCEPTED BASED ON SMALL RESIDUAL AND ESTIMATED CORRECTION

 AVERAGE MOMENT                     7.399E-05   TIME AVG. MOMENT      7.399E-05
 LARGEST RESIDUAL MOMENT           -7.883E-08   AT NODE       2148   DOF  5
   INSTANCE: PANEL-1                                                                         
 LARGEST INCREMENT OF ROTATION     -1.467E-06   AT NODE         11   DOF  5
   INSTANCE: PANEL-1                                                                         
 LARGEST CORRECTION TO ROTATION    -1.467E-06   AT NODE         11   DOF  5
   INSTANCE: PANEL-1                                                                         
          ROTATION CORRECTION TOO LARGE COMPARED TO ROTATION INCREMENT

  NUMBER OF EQUATIONS =    172691     NUMBER OF RHS =    2
  NUMBER OF FLOATING PT. OPERATIONS =  1.87E+10

     CHECK POINT   START OF SOLVER    

     CHECK POINT  END OF SOLVER       

       ELAPSED USER TIME (SEC)      =   1.0000    
       ELAPSED SYSTEM TIME (SEC)    =   0.0000    
       ELAPSED TOTAL CPU TIME (SEC) =   1.0000    
       ELAPSED WALLCLOCK TIME (SEC) =          1

               CONVERGENCE CHECKS FOR EQUILIBRIUM ITERATION     2


 AVERAGE FORCE                      0.324       TIME AVG. FORCE       0.324    
 LARGEST RESIDUAL FORCE             4.137E-05   AT NODE          3   DOF  1
   INSTANCE: PANEL-1                                                                         
 LARGEST INCREMENT OF DISP.         1.942E-07   AT NODE       1226   DOF  1
   INSTANCE: PANEL-1                                                                         
 LARGEST CORRECTION TO DISP.       -8.989E-13   AT NODE       9546   DOF  3
   INSTANCE: PANEL-1                                                                         
          THE FORCE     EQUILIBRIUM EQUATIONS HAVE CONVERGED

 AVERAGE MOMENT                     7.399E-05   TIME AVG. MOMENT      7.399E-05
 LARGEST RESIDUAL MOMENT           -5.193E-09   AT NODE      27500   DOF  4
   INSTANCE: PANEL-1                                                                         
 LARGEST INCREMENT OF ROTATION     -1.467E-06   AT NODE         11   DOF  5
   INSTANCE: PANEL-1                                                                         
 LARGEST CORRECTION TO ROTATION     4.692E-12   AT NODE        261   DOF  4
   INSTANCE: PANEL-1                                                                         
          THE MOMENT    EQUILIBRIUM EQUATIONS HAVE CONVERGED

 ITERATION SUMMARY FOR THE INCREMENT:   2 TOTAL ITERATIONS, OF WHICH
   0 ARE SEVERE DISCONTINUITY ITERATIONS AND  2 ARE EQUILIBRIUM ITERATIONS.


                                INCREMENT     1 SUMMARY


     CURRENT LOAD PROPORTIONALITY FACTOR         3.3333E-04
     TOTAL ARC LENGTH   1.000E-02, INCREMENT OF ARC LENGTH   1.000E-02


  INCREMENT     2 STARTS. ATTEMPT NUMBER  1

  NUMBER OF EQUATIONS =    172691     NUMBER OF RHS =    2
  NUMBER OF FLOATING PT. OPERATIONS =  1.87E+10

     CHECK POINT   START OF SOLVER    

     CHECK POINT  END OF SOLVER       

       ELAPSED USER TIME (SEC)      =  0.50000    
       ELAPSED SYSTEM TIME (SEC)    =   0.0000    
       ELAPSED TOTAL CPU TIME (SEC) =  0.50000    
       ELAPSED WALLCLOCK TIME (SEC) =          1

               CONVERGENCE CHECKS FOR EQUILIBRIUM ITERATION     1


 AVERAGE FORCE                       1.05       TIME AVG. FORCE       0.688    
 LARGEST RESIDUAL FORCE             1.186E-04   AT NODE          9   DOF  1
   INSTANCE: PANEL-1                                                                         
 LARGEST INCREMENT OF DISP.         1.942E-07   AT NODE       1226   DOF  1
   INSTANCE: PANEL-1                                                                         
 LARGEST CORRECTION TO DISP.        1.942E-07   AT NODE       1226   DOF  1
   INSTANCE: PANEL-1                                                                         
 ESTIMATE OF DISP.    CORRECTION    6.979E-14
 FORCE     EQUILIB. ACCEPTED BASED ON SMALL RESIDUAL AND ESTIMATED CORRECTION

 AVERAGE MOMENT                     1.863E-04   TIME AVG. MOMENT      1.301E-04
 LARGEST RESIDUAL MOMENT            7.762E-08   AT NODE       1225   DOF  5
   INSTANCE: PANEL-1                                                                         
 LARGEST INCREMENT OF ROTATION     -1.467E-06   AT NODE         11   DOF  5
   INSTANCE: PANEL-1                                                                         
 LARGEST CORRECTION TO ROTATION    -1.467E-06   AT NODE         11   DOF  5
   INSTANCE: PANEL-1                                                                         
          ROTATION CORRECTION TOO LARGE COMPARED TO ROTATION INCREMENT

  NUMBER OF EQUATIONS =    172691     NUMBER OF RHS =    2
  NUMBER OF FLOATING PT. OPERATIONS =  1.87E+10

     CHECK POINT   START OF SOLVER    

     CHECK POINT  END OF SOLVER       

       ELAPSED USER TIME (SEC)      =  0.40000    
       ELAPSED SYSTEM TIME (SEC)    =   0.0000    
       ELAPSED TOTAL CPU TIME (SEC) =  0.40000    
       ELAPSED WALLCLOCK TIME (SEC) =          1

               CONVERGENCE CHECKS FOR EQUILIBRIUM ITERATION     2


 AVERAGE FORCE                       1.05       TIME AVG. FORCE       0.688    
 LARGEST RESIDUAL FORCE            -6.008E-05   AT NODE          9   DOF  1
   INSTANCE: PANEL-1                                                                         
 LARGEST INCREMENT OF DISP.         1.942E-07   AT NODE       1226   DOF  1
   INSTANCE: PANEL-1                                                                         
 LARGEST CORRECTION TO DISP.       -8.898E-13   AT NODE      22509   DOF  3
   INSTANCE: PANEL-1                                                                         
          THE FORCE     EQUILIBRIUM EQUATIONS HAVE CONVERGED

 AVERAGE MOMENT                     1.863E-04   TIME AVG. MOMENT      1.301E-04
 LARGEST RESIDUAL MOMENT            4.191E-09   AT NODE      26760   DOF  6
   INSTANCE: PANEL-1                                                                         
 LARGEST INCREMENT OF ROTATION     -1.467E-06   AT NODE         11   DOF  5
   INSTANCE: PANEL-1                                                                         
 LARGEST CORRECTION TO ROTATION    -4.643E-12   AT NODE        824   DOF  4
   INSTANCE: PANEL-1                                                                         
          THE MOMENT    EQUILIBRIUM EQUATIONS HAVE CONVERGED
          ARC LENGTH INCREMENT MAY NOW INCREASE TO    1.500E-02

 ITERATION SUMMARY FOR THE INCREMENT:   2 TOTAL ITERATIONS, OF WHICH
   0 ARE SEVERE DISCONTINUITY ITERATIONS AND  2 ARE EQUILIBRIUM ITERATIONS.


                                INCREMENT     2 SUMMARY


     CURRENT LOAD PROPORTIONALITY FACTOR         6.6667E-04
     TOTAL ARC LENGTH   2.000E-02, INCREMENT OF ARC LENGTH   1.000E-02


  INCREMENT     3 STARTS. ATTEMPT NUMBER  1

  NUMBER OF EQUATIONS =    172691     NUMBER OF RHS =    2
  NUMBER OF FLOATING PT. OPERATIONS =  1.87E+10

     CHECK POINT   START OF SOLVER    

     CHECK POINT  END OF SOLVER       

       ELAPSED USER TIME (SEC)      =  0.50000    
       ELAPSED SYSTEM TIME (SEC)    =   0.0000    
       ELAPSED TOTAL CPU TIME (SEC) =  0.50000    
       ELAPSED WALLCLOCK TIME (SEC) =          1

               CONVERGENCE CHECKS FOR EQUILIBRIUM ITERATION     1


 AVERAGE FORCE                       1.79       TIME AVG. FORCE        1.05    
 LARGEST RESIDUAL FORCE            -2.311E-04   AT NODE          3   DOF  1
   INSTANCE: PANEL-1                                                                         
 LARGEST INCREMENT OF DISP.         2.913E-07   AT NODE       1226   DOF  1
   INSTANCE: PANEL-1                                                                         
 LARGEST CORRECTION TO DISP.        2.913E-07   AT NODE       1226   DOF  1
   INSTANCE: PANEL-1                                                                         
 ESTIMATE OF DISP.    CORRECTION   -1.360E-13
 FORCE     EQUILIB. ACCEPTED BASED ON SMALL RESIDUAL AND ESTIMATED CORRECTION

 AVERAGE MOMENT                     3.206E-04   TIME AVG. MOMENT      1.936E-04
 LARGEST RESIDUAL MOMENT           -1.743E-07   AT NODE       2148   DOF  5
   INSTANCE: PANEL-1                                                                         
 LARGEST INCREMENT OF ROTATION     -2.200E-06   AT NODE         11   DOF  5
   INSTANCE: PANEL-1                                                                         
 LARGEST CORRECTION TO ROTATION    -2.200E-06   AT NODE         11   DOF  5
   INSTANCE: PANEL-1                                                                         
          ROTATION CORRECTION TOO LARGE COMPARED TO ROTATION INCREMENT

  NUMBER OF EQUATIONS =    172691     NUMBER OF RHS =    2
  NUMBER OF FLOATING PT. OPERATIONS =  1.87E+10

     CHECK POINT   START OF SOLVER    

     CHECK POINT  END OF SOLVER       

       ELAPSED USER TIME (SEC)      =  0.30000    
       ELAPSED SYSTEM TIME (SEC)    =   0.0000    
       ELAPSED TOTAL CPU TIME (SEC) =  0.30000    
       ELAPSED WALLCLOCK TIME (SEC) =          1

               CONVERGENCE CHECKS FOR EQUILIBRIUM ITERATION     2


 AVERAGE FORCE                       1.79       TIME AVG. FORCE        1.05    
 LARGEST RESIDUAL FORCE             7.060E-05   AT NODE          3   DOF  1
   INSTANCE: PANEL-1                                                                         
 LARGEST INCREMENT OF DISP.         2.913E-07   AT NODE       1226   DOF  1
   INSTANCE: PANEL-1                                                                         
 LARGEST CORRECTION TO DISP.       -1.999E-12   AT NODE       9546   DOF  3
   INSTANCE: PANEL-1                                                                         
          THE FORCE     EQUILIBRIUM EQUATIONS HAVE CONVERGED

 AVERAGE MOMENT                     3.207E-04   TIME AVG. MOMENT      1.936E-04
 LARGEST RESIDUAL MOMENT            6.528E-09   AT NODE       1227   DOF  6
   INSTANCE: PANEL-1                                                                         
 LARGEST INCREMENT OF ROTATION     -2.200E-06   AT NODE         11   DOF  5
   INSTANCE: PANEL-1                                                                         
 LARGEST CORRECTION TO ROTATION     1.043E-11   AT NODE        261   DOF  4
   INSTANCE: PANEL-1                                                                         
          THE MOMENT    EQUILIBRIUM EQUATIONS HAVE CONVERGED
          ARC LENGTH INCREMENT MAY NOW INCREASE TO    2.250E-02

 ITERATION SUMMARY FOR THE INCREMENT:   2 TOTAL ITERATIONS, OF WHICH
   0 ARE SEVERE DISCONTINUITY ITERATIONS AND  2 ARE EQUILIBRIUM ITERATIONS.


                                INCREMENT     3 SUMMARY


     CURRENT LOAD PROPORTIONALITY FACTOR         1.1667E-03
     TOTAL ARC LENGTH   3.500E-02, INCREMENT OF ARC LENGTH   1.500E-02


  INCREMENT     4 STARTS. ATTEMPT NUMBER  1

  NUMBER OF EQUATIONS =    172691     NUMBER OF RHS =    2
  NUMBER OF FLOATING PT. OPERATIONS =  1.87E+10

     CHECK POINT   START OF SOLVER    

     CHECK POINT  END OF SOLVER       

       ELAPSED USER TIME (SEC)      =  0.60000    
       ELAPSED SYSTEM TIME (SEC)    =   0.0000    
       ELAPSED TOTAL CPU TIME (SEC) =  0.60000    
       ELAPSED WALLCLOCK TIME (SEC) =          1

               CONVERGENCE CHECKS FOR EQUILIBRIUM ITERATION     1


 AVERAGE FORCE                       2.86       TIME AVG. FORCE        1.50    
 LARGEST RESIDUAL FORCE             5.043E-04   AT NODE       1226   DOF  1
   INSTANCE: PANEL-1                                                                         
 LARGEST INCREMENT OF DISP.         4.369E-07   AT NODE       1226   DOF  1
   INSTANCE: PANEL-1                                                                         
 LARGEST CORRECTION TO DISP.        4.369E-07   AT NODE       1226   DOF  1
   INSTANCE: PANEL-1                                                                         
 ESTIMATE OF DISP.    CORRECTION    2.967E-13
 FORCE     EQUILIB. ACCEPTED BASED ON SMALL RESIDUAL AND ESTIMATED CORRECTION

 AVERAGE MOMENT                     5.202E-04   TIME AVG. MOMENT      2.753E-04
 LARGEST RESIDUAL MOMENT            3.909E-07   AT NODE       1225   DOF  5
   INSTANCE: PANEL-1                                                                         
 LARGEST INCREMENT OF ROTATION     -3.301E-06   AT NODE         11   DOF  5
   INSTANCE: PANEL-1                                                                         
 LARGEST CORRECTION TO ROTATION    -3.301E-06   AT NODE         11   DOF  5
   INSTANCE: PANEL-1                                                                         
          ROTATION CORRECTION TOO LARGE COMPARED TO ROTATION INCREMENT

  NUMBER OF EQUATIONS =    172691     NUMBER OF RHS =    2
  NUMBER OF FLOATING PT. OPERATIONS =  1.87E+10

     CHECK POINT   START OF SOLVER    

     CHECK POINT  END OF SOLVER       

       ELAPSED USER TIME (SEC)      =  0.60000    
       ELAPSED SYSTEM TIME (SEC)    =   0.0000    
       ELAPSED TOTAL CPU TIME (SEC) =  0.60000    
       ELAPSED WALLCLOCK TIME (SEC) =          1

               CONVERGENCE CHECKS FOR EQUILIBRIUM ITERATION     2


 AVERAGE FORCE                       2.86       TIME AVG. FORCE        1.50    
 LARGEST RESIDUAL FORCE            -7.459E-05   AT NODE          3   DOF  1
   INSTANCE: PANEL-1                                                                         
 LARGEST INCREMENT OF DISP.         4.369E-07   AT NODE       1226   DOF  1
   INSTANCE: PANEL-1                                                                         
 LARGEST CORRECTION TO DISP.       -4.494E-12   AT NODE      22509   DOF  3
   INSTANCE: PANEL-1                                                                         
          THE FORCE     EQUILIBRIUM EQUATIONS HAVE CONVERGED

 AVERAGE MOMENT                     5.202E-04   TIME AVG. MOMENT      2.753E-04
 LARGEST RESIDUAL MOMENT            4.467E-09   AT NODE      24679   DOF  4
   INSTANCE: PANEL-1                                                                         
 LARGEST INCREMENT OF ROTATION     -3.301E-06   AT NODE         11   DOF  5
   INSTANCE: PANEL-1                                                                         
 LARGEST CORRECTION TO ROTATION    -2.347E-11   AT NODE        824   DOF  4
   INSTANCE: PANEL-1                                                                         
          THE MOMENT    EQUILIBRIUM EQUATIONS HAVE CONVERGED
          ARC LENGTH INCREMENT MAY NOW INCREASE TO    3.375E-02

 ITERATION SUMMARY FOR THE INCREMENT:   2 TOTAL ITERATIONS, OF WHICH
   0 ARE SEVERE DISCONTINUITY ITERATIONS AND  2 ARE EQUILIBRIUM ITERATIONS.


                                INCREMENT     4 SUMMARY


     CURRENT LOAD PROPORTIONALITY FACTOR         1.9167E-03
     TOTAL ARC LENGTH   5.750E-02, INCREMENT OF ARC LENGTH   2.250E-02


  INCREMENT     5 STARTS. ATTEMPT NUMBER  1

  NUMBER OF EQUATIONS =    172691     NUMBER OF RHS =    2
  NUMBER OF FLOATING PT. OPERATIONS =  1.87E+10

     CHECK POINT   START OF SOLVER    

     CHECK POINT  END OF SOLVER       

       ELAPSED USER TIME (SEC)      =  0.50000    
       ELAPSED SYSTEM TIME (SEC)    =   0.0000    
       ELAPSED TOTAL CPU TIME (SEC) =  0.50000    
       ELAPSED WALLCLOCK TIME (SEC) =          1

               CONVERGENCE CHECKS FOR EQUILIBRIUM ITERATION     1


 AVERAGE FORCE                       4.40       TIME AVG. FORCE        2.08    
 LARGEST RESIDUAL FORCE             1.114E-03   AT NODE       1226   DOF  1
   INSTANCE: PANEL-1                                                                         
 LARGEST INCREMENT OF DISP.         6.553E-07   AT NODE       1226   DOF  1
   INSTANCE: PANEL-1                                                                         
 LARGEST CORRECTION TO DISP.        6.553E-07   AT NODE       1226   DOF  1
   INSTANCE: PANEL-1                                                                         
 ESTIMATE OF DISP.    CORRECTION    6.556E-13
 FORCE     EQUILIB. ACCEPTED BASED ON SMALL RESIDUAL AND ESTIMATED CORRECTION

 AVERAGE MOMENT                     8.159E-04   TIME AVG. MOMENT      3.834E-04
 LARGEST RESIDUAL MOMENT           -8.797E-07   AT NODE       2148   DOF  5
   INSTANCE: PANEL-1                                                                         
 LARGEST INCREMENT OF ROTATION     -4.951E-06   AT NODE         11   DOF  5
   INSTANCE: PANEL-1                                                                         
 LARGEST CORRECTION TO ROTATION    -4.951E-06   AT NODE         11   DOF  5
   INSTANCE: PANEL-1                                                                         
          ROTATION CORRECTION TOO LARGE COMPARED TO ROTATION INCREMENT

  NUMBER OF EQUATIONS =    172691     NUMBER OF RHS =    2
  NUMBER OF FLOATING PT. OPERATIONS =  1.87E+10

     CHECK POINT   START OF SOLVER    

     CHECK POINT  END OF SOLVER       

       ELAPSED USER TIME (SEC)      =  0.40000    
       ELAPSED SYSTEM TIME (SEC)    =   0.0000    
       ELAPSED TOTAL CPU TIME (SEC) =  0.40000    
       ELAPSED WALLCLOCK TIME (SEC) =          1

               CONVERGENCE CHECKS FOR EQUILIBRIUM ITERATION     2


 AVERAGE FORCE                       4.40       TIME AVG. FORCE        2.08    
 LARGEST RESIDUAL FORCE             3.367E-05   AT NODE          3   DOF  1
   INSTANCE: PANEL-1                                                                         
 LARGEST INCREMENT OF DISP.         6.553E-07   AT NODE       1226   DOF  1
   INSTANCE: PANEL-1                                                                         
 LARGEST CORRECTION TO DISP.       -1.011E-11   AT NODE       9546   DOF  3
   INSTANCE: PANEL-1                                                                         
          THE FORCE     EQUILIBRIUM EQUATIONS HAVE CONVERGED

 AVERAGE MOMENT                     8.159E-04   TIME AVG. MOMENT      3.834E-04
 LARGEST RESIDUAL MOMENT           -5.019E-09   AT NODE       2149   DOF  6
   INSTANCE: PANEL-1                                                                         
 LARGEST INCREMENT OF ROTATION     -4.951E-06   AT NODE         11   DOF  5
   INSTANCE: PANEL-1                                                                         
 LARGEST CORRECTION TO ROTATION     5.282E-11   AT NODE        261   DOF  4
   INSTANCE: PANEL-1                                                                         
          THE MOMENT    EQUILIBRIUM EQUATIONS HAVE CONVERGED
          ARC LENGTH INCREMENT MAY NOW INCREASE TO    5.063E-02

 ITERATION SUMMARY FOR THE INCREMENT:   2 TOTAL ITERATIONS, OF WHICH
   0 ARE SEVERE DISCONTINUITY ITERATIONS AND  2 ARE EQUILIBRIUM ITERATIONS.


                                INCREMENT     5 SUMMARY


     CURRENT LOAD PROPORTIONALITY FACTOR         3.0417E-03
     TOTAL ARC LENGTH   9.125E-02, INCREMENT OF ARC LENGTH   3.375E-02


  INCREMENT     6 STARTS. ATTEMPT NUMBER  1

  NUMBER OF EQUATIONS =    172691     NUMBER OF RHS =    2
  NUMBER OF FLOATING PT. OPERATIONS =  1.87E+10

     CHECK POINT   START OF SOLVER    

     CHECK POINT  END OF SOLVER       

       ELAPSED USER TIME (SEC)      =  0.50000    
       ELAPSED SYSTEM TIME (SEC)    =  0.10000    
       ELAPSED TOTAL CPU TIME (SEC) =  0.60000    
       ELAPSED WALLCLOCK TIME (SEC) =          1

               CONVERGENCE CHECKS FOR EQUILIBRIUM ITERATION     1


 AVERAGE FORCE                       6.59       TIME AVG. FORCE        2.83    
 LARGEST RESIDUAL FORCE             2.532E-03   AT NODE       1226   DOF  1
   INSTANCE: PANEL-1                                                                         
 LARGEST INCREMENT OF DISP.         9.830E-07   AT NODE       1226   DOF  1
   INSTANCE: PANEL-1                                                                         
 LARGEST CORRECTION TO DISP.        9.830E-07   AT NODE       1226   DOF  1
   INSTANCE: PANEL-1                                                                         
 ESTIMATE OF DISP.    CORRECTION    1.490E-12
 FORCE     EQUILIB. ACCEPTED BASED ON SMALL RESIDUAL AND ESTIMATED CORRECTION

 AVERAGE MOMENT                     1.255E-03   TIME AVG. MOMENT      5.287E-04
 LARGEST RESIDUAL MOMENT            1.978E-06   AT NODE       1225   DOF  5
   INSTANCE: PANEL-1                                                                         
 LARGEST INCREMENT OF ROTATION     -7.427E-06   AT NODE         11   DOF  5
   INSTANCE: PANEL-1                                                                         
 LARGEST CORRECTION TO ROTATION    -7.427E-06   AT NODE         11   DOF  5
   INSTANCE: PANEL-1                                                                         
          ROTATION CORRECTION TOO LARGE COMPARED TO ROTATION INCREMENT

  NUMBER OF EQUATIONS =    172691     NUMBER OF RHS =    2
  NUMBER OF FLOATING PT. OPERATIONS =  1.87E+10

     CHECK POINT   START OF SOLVER    

     CHECK POINT  END OF SOLVER       

       ELAPSED USER TIME (SEC)      =  0.60000    
       ELAPSED SYSTEM TIME (SEC)    =   0.0000    
       ELAPSED TOTAL CPU TIME (SEC) =  0.60000    
       ELAPSED WALLCLOCK TIME (SEC) =          1

               CONVERGENCE CHECKS FOR EQUILIBRIUM ITERATION     2


 AVERAGE FORCE                       6.59       TIME AVG. FORCE        2.83    
 LARGEST RESIDUAL FORCE             3.368E-05   AT NODE          9   DOF  1
   INSTANCE: PANEL-1                                                                         
 LARGEST INCREMENT OF DISP.         9.830E-07   AT NODE       1226   DOF  1
   INSTANCE: PANEL-1                                                                         
 LARGEST CORRECTION TO DISP.       -2.276E-11   AT NODE      22509   DOF  3
   INSTANCE: PANEL-1                                                                         
          THE FORCE     EQUILIBRIUM EQUATIONS HAVE CONVERGED

 AVERAGE MOMENT                     1.255E-03   TIME AVG. MOMENT      5.287E-04
 LARGEST RESIDUAL MOMENT           -6.541E-09   AT NODE      24679   DOF  6
   INSTANCE: PANEL-1                                                                         
 LARGEST INCREMENT OF ROTATION     -7.427E-06   AT NODE         11   DOF  5
   INSTANCE: PANEL-1                                                                         
 LARGEST CORRECTION TO ROTATION     1.189E-10   AT NODE        261   DOF  4
   INSTANCE: PANEL-1                                                                         
          THE MOMENT    EQUILIBRIUM EQUATIONS HAVE CONVERGED
          ARC LENGTH INCREMENT MAY NOW INCREASE TO    7.594E-02

 ITERATION SUMMARY FOR THE INCREMENT:   2 TOTAL ITERATIONS, OF WHICH
   0 ARE SEVERE DISCONTINUITY ITERATIONS AND  2 ARE EQUILIBRIUM ITERATIONS.


                                INCREMENT     6 SUMMARY


     CURRENT LOAD PROPORTIONALITY FACTOR         4.7291E-03
     TOTAL ARC LENGTH   0.142    , INCREMENT OF ARC LENGTH   5.063E-02


  INCREMENT     7 STARTS. ATTEMPT NUMBER  1

  NUMBER OF EQUATIONS =    172691     NUMBER OF RHS =    2
  NUMBER OF FLOATING PT. OPERATIONS =  1.87E+10

     CHECK POINT   START OF SOLVER    

     CHECK POINT  END OF SOLVER       

       ELAPSED USER TIME (SEC)      =  0.40000    
       ELAPSED SYSTEM TIME (SEC)    =  0.10000    
       ELAPSED TOTAL CPU TIME (SEC) =  0.50000    
       ELAPSED WALLCLOCK TIME (SEC) =          1

               CONVERGENCE CHECKS FOR EQUILIBRIUM ITERATION     1


 AVERAGE FORCE                       9.77       TIME AVG. FORCE        3.83    
 LARGEST RESIDUAL FORCE             5.695E-03   AT NODE       1226   DOF  1
   INSTANCE: PANEL-1                                                                         
 LARGEST INCREMENT OF DISP.         1.474E-06   AT NODE       1226   DOF  1
   INSTANCE: PANEL-1                                                                         
 LARGEST CORRECTION TO DISP.        1.474E-06   AT NODE       1226   DOF  1
   INSTANCE: PANEL-1                                                                         
 ESTIMATE OF DISP.    CORRECTION    3.351E-12
 FORCE     EQUILIB. ACCEPTED BASED ON SMALL RESIDUAL AND ESTIMATED CORRECTION

 AVERAGE MOMENT                     1.909E-03   TIME AVG. MOMENT      7.259E-04
 LARGEST RESIDUAL MOMENT           -4.450E-06   AT NODE       2148   DOF  5
   INSTANCE: PANEL-1                                                                         
 LARGEST INCREMENT OF ROTATION     -1.114E-05   AT NODE         11   DOF  5
   INSTANCE: PANEL-1                                                                         
 LARGEST CORRECTION TO ROTATION    -1.114E-05   AT NODE         11   DOF  5
   INSTANCE: PANEL-1                                                                         
          MOMENT    EQUILIBRIUM NOT ACHIEVED WITHIN TOLERANCE.

  NUMBER OF EQUATIONS =    172691     NUMBER OF RHS =    2
  NUMBER OF FLOATING PT. OPERATIONS =  1.87E+10

     CHECK POINT   START OF SOLVER    

     CHECK POINT  END OF SOLVER       

       ELAPSED USER TIME (SEC)      =  0.50000    
       ELAPSED SYSTEM TIME (SEC)    =   0.0000    
       ELAPSED TOTAL CPU TIME (SEC) =  0.50000    
       ELAPSED WALLCLOCK TIME (SEC) =          1

               CONVERGENCE CHECKS FOR EQUILIBRIUM ITERATION     2


 AVERAGE FORCE                       9.77       TIME AVG. FORCE        3.83    
 LARGEST RESIDUAL FORCE             4.179E-05   AT NODE          9   DOF  1
   INSTANCE: PANEL-1                                                                         
 LARGEST INCREMENT OF DISP.         1.474E-06   AT NODE       1226   DOF  1
   INSTANCE: PANEL-1                                                                         
 LARGEST CORRECTION TO DISP.       -5.124E-11   AT NODE      22509   DOF  3
   INSTANCE: PANEL-1                                                                         
          THE FORCE     EQUILIBRIUM EQUATIONS HAVE CONVERGED

 AVERAGE MOMENT                     1.909E-03   TIME AVG. MOMENT      7.259E-04
 LARGEST RESIDUAL MOMENT           -5.191E-09   AT NODE      24673   DOF  6
   INSTANCE: PANEL-1                                                                         
 LARGEST INCREMENT OF ROTATION     -1.114E-05   AT NODE         11   DOF  5
   INSTANCE: PANEL-1                                                                         
 LARGEST CORRECTION TO ROTATION     2.676E-10   AT NODE        261   DOF  4
   INSTANCE: PANEL-1                                                                         
          THE MOMENT    EQUILIBRIUM EQUATIONS HAVE CONVERGED
          ARC LENGTH INCREMENT MAY NOW INCREASE TO    0.114    

 ITERATION SUMMARY FOR THE INCREMENT:   2 TOTAL ITERATIONS, OF WHICH
   0 ARE SEVERE DISCONTINUITY ITERATIONS AND  2 ARE EQUILIBRIUM ITERATIONS.


                                INCREMENT     7 SUMMARY


     CURRENT LOAD PROPORTIONALITY FACTOR         7.2604E-03
     TOTAL ARC LENGTH   0.218    , INCREMENT OF ARC LENGTH   7.594E-02


  INCREMENT     8 STARTS. ATTEMPT NUMBER  1

  NUMBER OF EQUATIONS =    172691     NUMBER OF RHS =    2
  NUMBER OF FLOATING PT. OPERATIONS =  1.87E+10

     CHECK POINT   START OF SOLVER    

     CHECK POINT  END OF SOLVER       

       ELAPSED USER TIME (SEC)      =  0.40000    
       ELAPSED SYSTEM TIME (SEC)    =   0.0000    
       ELAPSED TOTAL CPU TIME (SEC) =  0.40000    
       ELAPSED WALLCLOCK TIME (SEC) =          1

               CONVERGENCE CHECKS FOR EQUILIBRIUM ITERATION     1


 AVERAGE FORCE                       14.4       TIME AVG. FORCE        5.15    
 LARGEST RESIDUAL FORCE             1.280E-02   AT NODE       1226   DOF  1
   INSTANCE: PANEL-1                                                                         
 LARGEST INCREMENT OF DISP.         2.212E-06   AT NODE       1226   DOF  1
   INSTANCE: PANEL-1                                                                         
 LARGEST CORRECTION TO DISP.        2.212E-06   AT NODE       1226   DOF  1
   INSTANCE: PANEL-1                                                                         
 ESTIMATE OF DISP.    CORRECTION    7.534E-12
 FORCE     EQUILIB. ACCEPTED BASED ON SMALL RESIDUAL AND ESTIMATED CORRECTION

 AVERAGE MOMENT                     2.880E-03   TIME AVG. MOMENT      9.951E-04
 LARGEST RESIDUAL MOMENT            1.001E-05   AT NODE       1225   DOF  5
   INSTANCE: PANEL-1                                                                         
 LARGEST INCREMENT OF ROTATION     -1.671E-05   AT NODE         11   DOF  5
   INSTANCE: PANEL-1                                                                         
 LARGEST CORRECTION TO ROTATION    -1.671E-05   AT NODE         11   DOF  5
   INSTANCE: PANEL-1                                                                         
          MOMENT    EQUILIBRIUM NOT ACHIEVED WITHIN TOLERANCE.

  NUMBER OF EQUATIONS =    172691     NUMBER OF RHS =    2
  NUMBER OF FLOATING PT. OPERATIONS =  1.87E+10

     CHECK POINT   START OF SOLVER    

     CHECK POINT  END OF SOLVER       

       ELAPSED USER TIME (SEC)      =  0.50000    
       ELAPSED SYSTEM TIME (SEC)    =   0.0000    
       ELAPSED TOTAL CPU TIME (SEC) =  0.50000    
       ELAPSED WALLCLOCK TIME (SEC) =          1

               CONVERGENCE CHECKS FOR EQUILIBRIUM ITERATION     2


 AVERAGE FORCE                       14.4       TIME AVG. FORCE        5.15    
 LARGEST RESIDUAL FORCE             4.022E-05   AT NODE          9   DOF  1
   INSTANCE: PANEL-1                                                                         
 LARGEST INCREMENT OF DISP.         2.212E-06   AT NODE       1226   DOF  1
   INSTANCE: PANEL-1                                                                         
 LARGEST CORRECTION TO DISP.       -1.154E-10   AT NODE      22509   DOF  3
   INSTANCE: PANEL-1                                                                         
          THE FORCE     EQUILIBRIUM EQUATIONS HAVE CONVERGED

 AVERAGE MOMENT                     2.880E-03   TIME AVG. MOMENT      9.951E-04
 LARGEST RESIDUAL MOMENT            6.343E-09   AT NODE      27494   DOF  6
   INSTANCE: PANEL-1                                                                         
 LARGEST INCREMENT OF ROTATION     -1.671E-05   AT NODE         11   DOF  5
   INSTANCE: PANEL-1                                                                         
 LARGEST CORRECTION TO ROTATION     6.027E-10   AT NODE        261   DOF  4
   INSTANCE: PANEL-1                                                                         
          THE MOMENT    EQUILIBRIUM EQUATIONS HAVE CONVERGED
          ARC LENGTH INCREMENT MAY NOW INCREASE TO    0.171    

 ITERATION SUMMARY FOR THE INCREMENT:   2 TOTAL ITERATIONS, OF WHICH
   0 ARE SEVERE DISCONTINUITY ITERATIONS AND  2 ARE EQUILIBRIUM ITERATIONS.


                                INCREMENT     8 SUMMARY


     CURRENT LOAD PROPORTIONALITY FACTOR         1.1057E-02
     TOTAL ARC LENGTH   0.332    , INCREMENT OF ARC LENGTH   0.114    


  INCREMENT     9 STARTS. ATTEMPT NUMBER  1

  NUMBER OF EQUATIONS =    172691     NUMBER OF RHS =    2
  NUMBER OF FLOATING PT. OPERATIONS =  1.87E+10

     CHECK POINT   START OF SOLVER    

     CHECK POINT  END OF SOLVER       

       ELAPSED USER TIME (SEC)      =  0.60000    
       ELAPSED SYSTEM TIME (SEC)    =   0.0000    
       ELAPSED TOTAL CPU TIME (SEC) =  0.60000    
       ELAPSED WALLCLOCK TIME (SEC) =          1

               CONVERGENCE CHECKS FOR EQUILIBRIUM ITERATION     1


 AVERAGE FORCE                       21.2       TIME AVG. FORCE        6.93    
 LARGEST RESIDUAL FORCE             2.882E-02   AT NODE       1226   DOF  1
   INSTANCE: PANEL-1                                                                         
 LARGEST INCREMENT OF DISP.         3.317E-06   AT NODE       1226   DOF  1
   INSTANCE: PANEL-1                                                                         
 LARGEST CORRECTION TO DISP.        3.317E-06   AT NODE       1226   DOF  1
   INSTANCE: PANEL-1                                                                         
 ESTIMATE OF DISP.    CORRECTION    1.696E-11
 FORCE     EQUILIB. ACCEPTED BASED ON SMALL RESIDUAL AND ESTIMATED CORRECTION

 AVERAGE MOMENT                     4.326E-03   TIME AVG. MOMENT      1.365E-03
 LARGEST RESIDUAL MOMENT            2.253E-05   AT NODE       2147   DOF  5
   INSTANCE: PANEL-1                                                                         
 LARGEST INCREMENT OF ROTATION     -2.506E-05   AT NODE         11   DOF  5
   INSTANCE: PANEL-1                                                                         
 LARGEST CORRECTION TO ROTATION    -2.506E-05   AT NODE         11   DOF  5
   INSTANCE: PANEL-1                                                                         
          MOMENT    EQUILIBRIUM NOT ACHIEVED WITHIN TOLERANCE.

  NUMBER OF EQUATIONS =    172691     NUMBER OF RHS =    2
  NUMBER OF FLOATING PT. OPERATIONS =  1.87E+10

     CHECK POINT   START OF SOLVER    

     CHECK POINT  END OF SOLVER       

       ELAPSED USER TIME (SEC)      =  0.60000    
       ELAPSED SYSTEM TIME (SEC)    =   0.0000    
       ELAPSED TOTAL CPU TIME (SEC) =  0.60000    
       ELAPSED WALLCLOCK TIME (SEC) =          1

               CONVERGENCE CHECKS FOR EQUILIBRIUM ITERATION     2


 AVERAGE FORCE                       21.2       TIME AVG. FORCE        6.93    
 LARGEST RESIDUAL FORCE            -1.492E-05   AT NODE          3   DOF  1
   INSTANCE: PANEL-1                                                                         
 LARGEST INCREMENT OF DISP.         3.317E-06   AT NODE       1226   DOF  1
   INSTANCE: PANEL-1                                                                         
 LARGEST CORRECTION TO DISP.       -2.600E-10   AT NODE      22509   DOF  3
   INSTANCE: PANEL-1                                                                         
          THE FORCE     EQUILIBRIUM EQUATIONS HAVE CONVERGED

 AVERAGE MOMENT                     4.327E-03   TIME AVG. MOMENT      1.365E-03
 LARGEST RESIDUAL MOMENT           -8.093E-09   AT NODE      24674   DOF  6
   INSTANCE: PANEL-1                                                                         
 LARGEST INCREMENT OF ROTATION     -2.506E-05   AT NODE         11   DOF  5
   INSTANCE: PANEL-1                                                                         
 LARGEST CORRECTION TO ROTATION     1.358E-09   AT NODE        261   DOF  4
   INSTANCE: PANEL-1                                                                         
          THE MOMENT    EQUILIBRIUM EQUATIONS HAVE CONVERGED
          ARC LENGTH INCREMENT MAY NOW INCREASE TO    0.256    

 ITERATION SUMMARY FOR THE INCREMENT:   2 TOTAL ITERATIONS, OF WHICH
   0 ARE SEVERE DISCONTINUITY ITERATIONS AND  2 ARE EQUILIBRIUM ITERATIONS.


                                INCREMENT     9 SUMMARY


     CURRENT LOAD PROPORTIONALITY FACTOR         1.6752E-02
     TOTAL ARC LENGTH   0.503    , INCREMENT OF ARC LENGTH   0.171    


  INCREMENT    10 STARTS. ATTEMPT NUMBER  1

  NUMBER OF EQUATIONS =    172691     NUMBER OF RHS =    2
  NUMBER OF FLOATING PT. OPERATIONS =  1.87E+10

     CHECK POINT   START OF SOLVER    

     CHECK POINT  END OF SOLVER       

       ELAPSED USER TIME (SEC)      =  0.60000    
       ELAPSED SYSTEM TIME (SEC)    =   0.0000    
       ELAPSED TOTAL CPU TIME (SEC) =  0.60000    
       ELAPSED WALLCLOCK TIME (SEC) =          1

               CONVERGENCE CHECKS FOR EQUILIBRIUM ITERATION     1


 AVERAGE FORCE                       31.3       TIME AVG. FORCE        9.37    
 LARGEST RESIDUAL FORCE             6.486E-02   AT NODE       1226   DOF  1
   INSTANCE: PANEL-1                                                                         
 LARGEST INCREMENT OF DISP.         4.976E-06   AT NODE       1226   DOF  1
   INSTANCE: PANEL-1                                                                         
 LARGEST CORRECTION TO DISP.        4.976E-06   AT NODE       1226   DOF  1
   INSTANCE: PANEL-1                                                                         
          FORCE     EQUILIBRIUM NOT ACHIEVED WITHIN TOLERANCE.

 AVERAGE MOMENT                     6.481E-03   TIME AVG. MOMENT      1.877E-03
 LARGEST RESIDUAL MOMENT           -5.068E-05   AT NODE       2148   DOF  5
   INSTANCE: PANEL-1                                                                         
 LARGEST INCREMENT OF ROTATION     -3.760E-05   AT NODE         11   DOF  5
   INSTANCE: PANEL-1                                                                         
 LARGEST CORRECTION TO ROTATION    -3.760E-05   AT NODE         11   DOF  5
   INSTANCE: PANEL-1                                                                         
          MOMENT    EQUILIBRIUM NOT ACHIEVED WITHIN TOLERANCE.

  NUMBER OF EQUATIONS =    172691     NUMBER OF RHS =    2
  NUMBER OF FLOATING PT. OPERATIONS =  1.87E+10

     CHECK POINT   START OF SOLVER    

     CHECK POINT  END OF SOLVER       

       ELAPSED USER TIME (SEC)      =  0.60000    
       ELAPSED SYSTEM TIME (SEC)    =   0.0000    
       ELAPSED TOTAL CPU TIME (SEC) =  0.60000    
       ELAPSED WALLCLOCK TIME (SEC) =          1

               CONVERGENCE CHECKS FOR EQUILIBRIUM ITERATION     2


 AVERAGE FORCE                       31.3       TIME AVG. FORCE        9.37    
 LARGEST RESIDUAL FORCE             6.330E-05   AT NODE          3   DOF  1
   INSTANCE: PANEL-1                                                                         
 LARGEST INCREMENT OF DISP.         4.976E-06   AT NODE       1226   DOF  1
   INSTANCE: PANEL-1                                                                         
 LARGEST CORRECTION TO DISP.       -5.860E-10   AT NODE      22509   DOF  3
   INSTANCE: PANEL-1                                                                         
          THE FORCE     EQUILIBRIUM EQUATIONS HAVE CONVERGED

 AVERAGE MOMENT                     6.482E-03   TIME AVG. MOMENT      1.877E-03
 LARGEST RESIDUAL MOMENT           -5.003E-09   AT NODE      26763   DOF  4
   INSTANCE: PANEL-1                                                                         
 LARGEST INCREMENT OF ROTATION     -3.760E-05   AT NODE         11   DOF  5
   INSTANCE: PANEL-1                                                                         
 LARGEST CORRECTION TO ROTATION     3.062E-09   AT NODE        261   DOF  4
   INSTANCE: PANEL-1                                                                         
          THE MOMENT    EQUILIBRIUM EQUATIONS HAVE CONVERGED
          ARC LENGTH INCREMENT MAY NOW INCREASE TO    0.384    

 ITERATION SUMMARY FOR THE INCREMENT:   2 TOTAL ITERATIONS, OF WHICH
   0 ARE SEVERE DISCONTINUITY ITERATIONS AND  2 ARE EQUILIBRIUM ITERATIONS.


                                INCREMENT    10 SUMMARY


     CURRENT LOAD PROPORTIONALITY FACTOR         2.5295E-02
     TOTAL ARC LENGTH   0.759    , INCREMENT OF ARC LENGTH   0.256    


  INCREMENT    11 STARTS. ATTEMPT NUMBER  1

  NUMBER OF EQUATIONS =    172691     NUMBER OF RHS =    2
  NUMBER OF FLOATING PT. OPERATIONS =  1.87E+10

     CHECK POINT   START OF SOLVER    

     CHECK POINT  END OF SOLVER       

       ELAPSED USER TIME (SEC)      =  0.70000    
       ELAPSED SYSTEM TIME (SEC)    =   0.0000    
       ELAPSED TOTAL CPU TIME (SEC) =  0.70000    
       ELAPSED WALLCLOCK TIME (SEC) =          1

               CONVERGENCE CHECKS FOR EQUILIBRIUM ITERATION     1


 AVERAGE FORCE                       46.2       TIME AVG. FORCE        12.7    
 LARGEST RESIDUAL FORCE             0.146       AT NODE       1226   DOF  1
   INSTANCE: PANEL-1                                                                         
 LARGEST INCREMENT OF DISP.         7.464E-06   AT NODE       1226   DOF  1
   INSTANCE: PANEL-1                                                                         
 LARGEST CORRECTION TO DISP.        7.464E-06   AT NODE       1226   DOF  1
   INSTANCE: PANEL-1                                                                         
          FORCE     EQUILIBRIUM NOT ACHIEVED WITHIN TOLERANCE.

 AVERAGE MOMENT                     9.696E-03   TIME AVG. MOMENT      2.588E-03
 LARGEST RESIDUAL MOMENT            1.140E-04   AT NODE       1225   DOF  5
   INSTANCE: PANEL-1                                                                         
 LARGEST INCREMENT OF ROTATION     -5.639E-05   AT NODE         11   DOF  5
   INSTANCE: PANEL-1                                                                         
 LARGEST CORRECTION TO ROTATION    -5.639E-05   AT NODE         11   DOF  5
   INSTANCE: PANEL-1                                                                         
          MOMENT    EQUILIBRIUM NOT ACHIEVED WITHIN TOLERANCE.

  NUMBER OF EQUATIONS =    172691     NUMBER OF RHS =    2
  NUMBER OF FLOATING PT. OPERATIONS =  1.87E+10

     CHECK POINT   START OF SOLVER    

     CHECK POINT  END OF SOLVER       

       ELAPSED USER TIME (SEC)      =  0.70000    
       ELAPSED SYSTEM TIME (SEC)    =  0.10000    
       ELAPSED TOTAL CPU TIME (SEC) =  0.80000    
       ELAPSED WALLCLOCK TIME (SEC) =          1

               CONVERGENCE CHECKS FOR EQUILIBRIUM ITERATION     2


 AVERAGE FORCE                       46.2       TIME AVG. FORCE        12.7    
 LARGEST RESIDUAL FORCE            -2.256E-05   AT NODE          9   DOF  1
   INSTANCE: PANEL-1                                                                         
 LARGEST INCREMENT OF DISP.         7.464E-06   AT NODE       1226   DOF  1
   INSTANCE: PANEL-1                                                                         
 LARGEST CORRECTION TO DISP.       -1.322E-09   AT NODE      22509   DOF  3
   INSTANCE: PANEL-1                                                                         
          THE FORCE     EQUILIBRIUM EQUATIONS HAVE CONVERGED

 AVERAGE MOMENT                     9.698E-03   TIME AVG. MOMENT      2.588E-03
 LARGEST RESIDUAL MOMENT           -4.624E-09   AT NODE      24673   DOF  6
   INSTANCE: PANEL-1                                                                         
 LARGEST INCREMENT OF ROTATION     -5.639E-05   AT NODE         11   DOF  5
   INSTANCE: PANEL-1                                                                         
 LARGEST CORRECTION TO ROTATION     6.910E-09   AT NODE        261   DOF  4
   INSTANCE: PANEL-1                                                                         
          THE MOMENT    EQUILIBRIUM EQUATIONS HAVE CONVERGED
          ARC LENGTH INCREMENT MAY NOW INCREASE TO    0.577    

 ITERATION SUMMARY FOR THE INCREMENT:   2 TOTAL ITERATIONS, OF WHICH
   0 ARE SEVERE DISCONTINUITY ITERATIONS AND  2 ARE EQUILIBRIUM ITERATIONS.


                                INCREMENT    11 SUMMARY


     CURRENT LOAD PROPORTIONALITY FACTOR         3.8108E-02
     TOTAL ARC LENGTH    1.14    , INCREMENT OF ARC LENGTH   0.384    


  INCREMENT    12 STARTS. ATTEMPT NUMBER  1

  NUMBER OF EQUATIONS =    172691     NUMBER OF RHS =    2
  NUMBER OF FLOATING PT. OPERATIONS =  1.87E+10

     CHECK POINT   START OF SOLVER    

     CHECK POINT  END OF SOLVER       

       ELAPSED USER TIME (SEC)      =  0.60000    
       ELAPSED SYSTEM TIME (SEC)    =   0.0000    
       ELAPSED TOTAL CPU TIME (SEC) =  0.60000    
       ELAPSED WALLCLOCK TIME (SEC) =          1

               CONVERGENCE CHECKS FOR EQUILIBRIUM ITERATION     1


 AVERAGE FORCE                       68.3       TIME AVG. FORCE        17.4    
 LARGEST RESIDUAL FORCE             0.328       AT NODE       1226   DOF  1
   INSTANCE: PANEL-1                                                                         
 LARGEST INCREMENT OF DISP.         1.120E-05   AT NODE       1226   DOF  1
   INSTANCE: PANEL-1                                                                         
 LARGEST CORRECTION TO DISP.        1.120E-05   AT NODE       1226   DOF  1
   INSTANCE: PANEL-1                                                                         
          FORCE     EQUILIBRIUM NOT ACHIEVED WITHIN TOLERANCE.

 AVERAGE MOMENT                     1.450E-02   TIME AVG. MOMENT      3.580E-03
 LARGEST RESIDUAL MOMENT            2.566E-04   AT NODE       1225   DOF  5
   INSTANCE: PANEL-1                                                                         
 LARGEST INCREMENT OF ROTATION     -8.459E-05   AT NODE         11   DOF  5
   INSTANCE: PANEL-1                                                                         
 LARGEST CORRECTION TO ROTATION    -8.459E-05   AT NODE         11   DOF  5
   INSTANCE: PANEL-1                                                                         
          MOMENT    EQUILIBRIUM NOT ACHIEVED WITHIN TOLERANCE.

  NUMBER OF EQUATIONS =    172691     NUMBER OF RHS =    2
  NUMBER OF FLOATING PT. OPERATIONS =  1.87E+10

     CHECK POINT   START OF SOLVER    

     CHECK POINT  END OF SOLVER       

       ELAPSED USER TIME (SEC)      =  0.80000    
       ELAPSED SYSTEM TIME (SEC)    =   0.0000    
       ELAPSED TOTAL CPU TIME (SEC) =  0.80000    
       ELAPSED WALLCLOCK TIME (SEC) =          1

               CONVERGENCE CHECKS FOR EQUILIBRIUM ITERATION     2


 AVERAGE FORCE                       68.3       TIME AVG. FORCE        17.4    
 LARGEST RESIDUAL FORCE            -5.866E-05   AT NODE          9   DOF  1
   INSTANCE: PANEL-1                                                                         
 LARGEST INCREMENT OF DISP.         1.120E-05   AT NODE       1226   DOF  1
   INSTANCE: PANEL-1                                                                         
 LARGEST CORRECTION TO DISP.       -2.988E-09   AT NODE      22509   DOF  3
   INSTANCE: PANEL-1                                                                         
          THE FORCE     EQUILIBRIUM EQUATIONS HAVE CONVERGED

 AVERAGE MOMENT                     1.450E-02   TIME AVG. MOMENT      3.581E-03
 LARGEST RESIDUAL MOMENT           -7.846E-09   AT NODE          1   DOF  4
   INSTANCE: PANEL-1                                                                         
 LARGEST INCREMENT OF ROTATION     -8.458E-05   AT NODE         11   DOF  5
   INSTANCE: PANEL-1                                                                         
 LARGEST CORRECTION TO ROTATION     1.562E-08   AT NODE        261   DOF  4
   INSTANCE: PANEL-1                                                                         
          THE MOMENT    EQUILIBRIUM EQUATIONS HAVE CONVERGED
          ARC LENGTH INCREMENT MAY NOW INCREASE TO    0.865    

 ITERATION SUMMARY FOR THE INCREMENT:   2 TOTAL ITERATIONS, OF WHICH
   0 ARE SEVERE DISCONTINUITY ITERATIONS AND  2 ARE EQUILIBRIUM ITERATIONS.


                                INCREMENT    12 SUMMARY


     CURRENT LOAD PROPORTIONALITY FACTOR         5.7328E-02
     TOTAL ARC LENGTH    1.72    , INCREMENT OF ARC LENGTH   0.577    


  INCREMENT    13 STARTS. ATTEMPT NUMBER  1

  NUMBER OF EQUATIONS =    172691     NUMBER OF RHS =    2
  NUMBER OF FLOATING PT. OPERATIONS =  1.87E+10

     CHECK POINT   START OF SOLVER    

     CHECK POINT  END OF SOLVER       

       ELAPSED USER TIME (SEC)      =  0.70000    
       ELAPSED SYSTEM TIME (SEC)    =   0.0000    
       ELAPSED TOTAL CPU TIME (SEC) =  0.70000    
       ELAPSED WALLCLOCK TIME (SEC) =          1

               CONVERGENCE CHECKS FOR EQUILIBRIUM ITERATION     1


 AVERAGE FORCE                       101.       TIME AVG. FORCE        23.8    
 LARGEST RESIDUAL FORCE             0.739       AT NODE       1226   DOF  1
   INSTANCE: PANEL-1                                                                         
 LARGEST INCREMENT OF DISP.         1.679E-05   AT NODE       1226   DOF  1
   INSTANCE: PANEL-1                                                                         
 LARGEST CORRECTION TO DISP.        1.679E-05   AT NODE       1226   DOF  1
   INSTANCE: PANEL-1                                                                         
          FORCE     EQUILIBRIUM NOT ACHIEVED WITHIN TOLERANCE.

 AVERAGE MOMENT                     2.165E-02   TIME AVG. MOMENT      4.971E-03
 LARGEST RESIDUAL MOMENT           -5.774E-04   AT NODE       2148   DOF  5
   INSTANCE: PANEL-1                                                                         
 LARGEST INCREMENT OF ROTATION     -1.269E-04   AT NODE         11   DOF  5
   INSTANCE: PANEL-1                                                                         
 LARGEST CORRECTION TO ROTATION    -1.269E-04   AT NODE         11   DOF  5
   INSTANCE: PANEL-1                                                                         
          MOMENT    EQUILIBRIUM NOT ACHIEVED WITHIN TOLERANCE.

  NUMBER OF EQUATIONS =    172691     NUMBER OF RHS =    2
  NUMBER OF FLOATING PT. OPERATIONS =  1.87E+10

     CHECK POINT   START OF SOLVER    

     CHECK POINT  END OF SOLVER       

       ELAPSED USER TIME (SEC)      =  0.60000    
       ELAPSED SYSTEM TIME (SEC)    =   0.0000    
       ELAPSED TOTAL CPU TIME (SEC) =  0.60000    
       ELAPSED WALLCLOCK TIME (SEC) =          1

               CONVERGENCE CHECKS FOR EQUILIBRIUM ITERATION     2


 AVERAGE FORCE                       101.       TIME AVG. FORCE        23.8    
 LARGEST RESIDUAL FORCE             4.112E-05   AT NODE          3   DOF  1
   INSTANCE: PANEL-1                                                                         
 LARGEST INCREMENT OF DISP.         1.679E-05   AT NODE       1226   DOF  1
   INSTANCE: PANEL-1                                                                         
 LARGEST CORRECTION TO DISP.       -6.765E-09   AT NODE      22509   DOF  3
   INSTANCE: PANEL-1                                                                         
          THE FORCE     EQUILIBRIUM EQUATIONS HAVE CONVERGED

 AVERAGE MOMENT                     2.166E-02   TIME AVG. MOMENT      4.971E-03
 LARGEST RESIDUAL MOMENT           -2.292E-08   AT NODE          2   DOF  4
   INSTANCE: PANEL-1                                                                         
 LARGEST INCREMENT OF ROTATION     -1.269E-04   AT NODE         11   DOF  5
   INSTANCE: PANEL-1                                                                         
 LARGEST CORRECTION TO ROTATION     3.540E-08   AT NODE        261   DOF  4
   INSTANCE: PANEL-1                                                                         
          THE MOMENT    EQUILIBRIUM EQUATIONS HAVE CONVERGED
          ARC LENGTH INCREMENT MAY NOW INCREASE TO     1.30    

 ITERATION SUMMARY FOR THE INCREMENT:   2 TOTAL ITERATIONS, OF WHICH
   0 ARE SEVERE DISCONTINUITY ITERATIONS AND  2 ARE EQUILIBRIUM ITERATIONS.


                                INCREMENT    13 SUMMARY


     CURRENT LOAD PROPORTIONALITY FACTOR         8.6156E-02
     TOTAL ARC LENGTH    2.58    , INCREMENT OF ARC LENGTH   0.865    


  INCREMENT    14 STARTS. ATTEMPT NUMBER  1

  NUMBER OF EQUATIONS =    172691     NUMBER OF RHS =    2
  NUMBER OF FLOATING PT. OPERATIONS =  1.87E+10

     CHECK POINT   START OF SOLVER    

     CHECK POINT  END OF SOLVER       

       ELAPSED USER TIME (SEC)      =  0.60000    
       ELAPSED SYSTEM TIME (SEC)    =   0.0000    
       ELAPSED TOTAL CPU TIME (SEC) =  0.60000    
       ELAPSED WALLCLOCK TIME (SEC) =          1

               CONVERGENCE CHECKS FOR EQUILIBRIUM ITERATION     1


 AVERAGE FORCE                       150.       TIME AVG. FORCE        32.8    
 LARGEST RESIDUAL FORCE              1.66       AT NODE       1226   DOF  1
   INSTANCE: PANEL-1                                                                         
 LARGEST INCREMENT OF DISP.         2.519E-05   AT NODE       1226   DOF  1
   INSTANCE: PANEL-1                                                                         
 LARGEST CORRECTION TO DISP.        2.519E-05   AT NODE       1226   DOF  1
   INSTANCE: PANEL-1                                                                         
          FORCE     EQUILIBRIUM NOT ACHIEVED WITHIN TOLERANCE.

 AVERAGE MOMENT                     3.237E-02   TIME AVG. MOMENT      6.928E-03
 LARGEST RESIDUAL MOMENT            1.299E-03   AT NODE       1225   DOF  5
   INSTANCE: PANEL-1                                                                         
 LARGEST INCREMENT OF ROTATION     -1.903E-04   AT NODE         11   DOF  5
   INSTANCE: PANEL-1                                                                         
 LARGEST CORRECTION TO ROTATION    -1.903E-04   AT NODE         11   DOF  5
   INSTANCE: PANEL-1                                                                         
          MOMENT    EQUILIBRIUM NOT ACHIEVED WITHIN TOLERANCE.

  NUMBER OF EQUATIONS =    172691     NUMBER OF RHS =    2
  NUMBER OF FLOATING PT. OPERATIONS =  1.87E+10

     CHECK POINT   START OF SOLVER    

     CHECK POINT  END OF SOLVER       

       ELAPSED USER TIME (SEC)      =  0.60000    
       ELAPSED SYSTEM TIME (SEC)    =  0.10000    
       ELAPSED TOTAL CPU TIME (SEC) =  0.70000    
       ELAPSED WALLCLOCK TIME (SEC) =          1

               CONVERGENCE CHECKS FOR EQUILIBRIUM ITERATION     2


 AVERAGE FORCE                       150.       TIME AVG. FORCE        32.8    
 LARGEST RESIDUAL FORCE             1.214E-05   AT NODE      26456   DOF  1
   INSTANCE: PANEL-1                                                                         
 LARGEST INCREMENT OF DISP.         2.519E-05   AT NODE       1226   DOF  1
   INSTANCE: PANEL-1                                                                         
 LARGEST CORRECTION TO DISP.       -1.537E-08   AT NODE      22509   DOF  3
   INSTANCE: PANEL-1                                                                         
          THE FORCE     EQUILIBRIUM EQUATIONS HAVE CONVERGED

 AVERAGE MOMENT                     3.238E-02   TIME AVG. MOMENT      6.929E-03
 LARGEST RESIDUAL MOMENT           -7.818E-08   AT NODE          2   DOF  4
   INSTANCE: PANEL-1                                                                         
 LARGEST INCREMENT OF ROTATION     -1.903E-04   AT NODE         11   DOF  5
   INSTANCE: PANEL-1                                                                         
 LARGEST CORRECTION TO ROTATION     8.049E-08   AT NODE        261   DOF  4
   INSTANCE: PANEL-1                                                                         
          THE MOMENT    EQUILIBRIUM EQUATIONS HAVE CONVERGED
          ARC LENGTH INCREMENT MAY NOW INCREASE TO     1.95    

 ITERATION SUMMARY FOR THE INCREMENT:   2 TOTAL ITERATIONS, OF WHICH
   0 ARE SEVERE DISCONTINUITY ITERATIONS AND  2 ARE EQUILIBRIUM ITERATIONS.


                                INCREMENT    14 SUMMARY


     CURRENT LOAD PROPORTIONALITY FACTOR         0.1294    
     TOTAL ARC LENGTH    3.88    , INCREMENT OF ARC LENGTH    1.30    


  INCREMENT    15 STARTS. ATTEMPT NUMBER  1

  NUMBER OF EQUATIONS =    172691     NUMBER OF RHS =    2
  NUMBER OF FLOATING PT. OPERATIONS =  1.87E+10

     CHECK POINT   START OF SOLVER    

     CHECK POINT  END OF SOLVER       

       ELAPSED USER TIME (SEC)      =  0.70000    
       ELAPSED SYSTEM TIME (SEC)    =   0.0000    
       ELAPSED TOTAL CPU TIME (SEC) =  0.70000    
       ELAPSED WALLCLOCK TIME (SEC) =          1

               CONVERGENCE CHECKS FOR EQUILIBRIUM ITERATION     1


 AVERAGE FORCE                       222.       TIME AVG. FORCE        45.4    
 LARGEST RESIDUAL FORCE              3.74       AT NODE       1226   DOF  1
   INSTANCE: PANEL-1                                                                         
 LARGEST INCREMENT OF DISP.         3.778E-05   AT NODE       1226   DOF  1
   INSTANCE: PANEL-1                                                                         
 LARGEST CORRECTION TO DISP.        3.778E-05   AT NODE       1226   DOF  1
   INSTANCE: PANEL-1                                                                         
          FORCE     EQUILIBRIUM NOT ACHIEVED WITHIN TOLERANCE.

 AVERAGE MOMENT                     4.837E-02   TIME AVG. MOMENT      9.692E-03
 LARGEST RESIDUAL MOMENT            2.924E-03   AT NODE       1225   DOF  5
   INSTANCE: PANEL-1                                                                         
 LARGEST INCREMENT OF ROTATION     -2.854E-04   AT NODE         11   DOF  5
   INSTANCE: PANEL-1                                                                         
 LARGEST CORRECTION TO ROTATION    -2.854E-04   AT NODE         11   DOF  5
   INSTANCE: PANEL-1                                                                         
          MOMENT    EQUILIBRIUM NOT ACHIEVED WITHIN TOLERANCE.

  NUMBER OF EQUATIONS =    172691     NUMBER OF RHS =    2
  NUMBER OF FLOATING PT. OPERATIONS =  1.87E+10

     CHECK POINT   START OF SOLVER    

     CHECK POINT  END OF SOLVER       

       ELAPSED USER TIME (SEC)      =  0.60000    
       ELAPSED SYSTEM TIME (SEC)    =   0.0000    
       ELAPSED TOTAL CPU TIME (SEC) =  0.60000    
       ELAPSED WALLCLOCK TIME (SEC) =          1

               CONVERGENCE CHECKS FOR EQUILIBRIUM ITERATION     2


 AVERAGE FORCE                       222.       TIME AVG. FORCE        45.4    
 LARGEST RESIDUAL FORCE             4.976E-05   AT NODE          3   DOF  1
   INSTANCE: PANEL-1                                                                         
 LARGEST INCREMENT OF DISP.         3.778E-05   AT NODE       1226   DOF  1
   INSTANCE: PANEL-1                                                                         
 LARGEST CORRECTION TO DISP.       -3.508E-08   AT NODE      22509   DOF  3
   INSTANCE: PANEL-1                                                                         
          THE FORCE     EQUILIBRIUM EQUATIONS HAVE CONVERGED

 AVERAGE MOMENT                     4.841E-02   TIME AVG. MOMENT      9.695E-03
 LARGEST RESIDUAL MOMENT           -2.659E-07   AT NODE          1   DOF  4
   INSTANCE: PANEL-1                                                                         
 LARGEST INCREMENT OF ROTATION     -2.854E-04   AT NODE         11   DOF  5
   INSTANCE: PANEL-1                                                                         
 LARGEST CORRECTION TO ROTATION     1.840E-07   AT NODE        261   DOF  4
   INSTANCE: PANEL-1                                                                         
          THE MOMENT    EQUILIBRIUM EQUATIONS HAVE CONVERGED
          ARC LENGTH INCREMENT MAY NOW INCREASE TO     2.92    

 ITERATION SUMMARY FOR THE INCREMENT:   2 TOTAL ITERATIONS, OF WHICH
   0 ARE SEVERE DISCONTINUITY ITERATIONS AND  2 ARE EQUILIBRIUM ITERATIONS.


                                INCREMENT    15 SUMMARY


     CURRENT LOAD PROPORTIONALITY FACTOR         0.1942    
     TOTAL ARC LENGTH    5.83    , INCREMENT OF ARC LENGTH    1.95    


  INCREMENT    16 STARTS. ATTEMPT NUMBER  1

  NUMBER OF EQUATIONS =    172691     NUMBER OF RHS =    2
  NUMBER OF FLOATING PT. OPERATIONS =  1.87E+10

     CHECK POINT   START OF SOLVER    

     CHECK POINT  END OF SOLVER       

       ELAPSED USER TIME (SEC)      =  0.60000    
       ELAPSED SYSTEM TIME (SEC)    =   0.0000    
       ELAPSED TOTAL CPU TIME (SEC) =  0.60000    
       ELAPSED WALLCLOCK TIME (SEC) =          1

               CONVERGENCE CHECKS FOR EQUILIBRIUM ITERATION     1


 AVERAGE FORCE                       330.       TIME AVG. FORCE        63.2    
 LARGEST RESIDUAL FORCE              8.43       AT NODE       1226   DOF  1
   INSTANCE: PANEL-1                                                                         
 LARGEST INCREMENT OF DISP.         5.666E-05   AT NODE       1226   DOF  1
   INSTANCE: PANEL-1                                                                         
 LARGEST CORRECTION TO DISP.        5.666E-05   AT NODE       1226   DOF  1
   INSTANCE: PANEL-1                                                                         
          FORCE     EQUILIBRIUM NOT ACHIEVED WITHIN TOLERANCE.

 AVERAGE MOMENT                     7.234E-02   TIME AVG. MOMENT      1.361E-02
 LARGEST RESIDUAL MOMENT            6.580E-03   AT NODE       1225   DOF  5
   INSTANCE: PANEL-1                                                                         
 LARGEST INCREMENT OF ROTATION     -4.280E-04   AT NODE         11   DOF  5
   INSTANCE: PANEL-1                                                                         
 LARGEST CORRECTION TO ROTATION    -4.280E-04   AT NODE         11   DOF  5
   INSTANCE: PANEL-1                                                                         
          MOMENT    EQUILIBRIUM NOT ACHIEVED WITHIN TOLERANCE.

  NUMBER OF EQUATIONS =    172691     NUMBER OF RHS =    2
  NUMBER OF FLOATING PT. OPERATIONS =  1.87E+10

     CHECK POINT   START OF SOLVER    

     CHECK POINT  END OF SOLVER       

       ELAPSED USER TIME (SEC)      =  0.60000    
       ELAPSED SYSTEM TIME (SEC)    =   0.0000    
       ELAPSED TOTAL CPU TIME (SEC) =  0.60000    
       ELAPSED WALLCLOCK TIME (SEC) =          1

               CONVERGENCE CHECKS FOR EQUILIBRIUM ITERATION     2


 AVERAGE FORCE                       330.       TIME AVG. FORCE        63.2    
 LARGEST RESIDUAL FORCE             1.379E-04   AT NODE          3   DOF  1
   INSTANCE: PANEL-1                                                                         
 LARGEST INCREMENT OF DISP.         5.665E-05   AT NODE       1226   DOF  1
   INSTANCE: PANEL-1                                                                         
 LARGEST CORRECTION TO DISP.       -8.068E-08   AT NODE      22509   DOF  3
   INSTANCE: PANEL-1                                                                         
          THE FORCE     EQUILIBRIUM EQUATIONS HAVE CONVERGED

 AVERAGE MOMENT                     7.242E-02   TIME AVG. MOMENT      1.362E-02
 LARGEST RESIDUAL MOMENT            9.175E-07   AT NODE          8   DOF  4
   INSTANCE: PANEL-1                                                                         
 LARGEST INCREMENT OF ROTATION     -4.280E-04   AT NODE         11   DOF  5
   INSTANCE: PANEL-1                                                                         
 LARGEST CORRECTION TO ROTATION     4.241E-07   AT NODE        261   DOF  4
   INSTANCE: PANEL-1                                                                         
          THE MOMENT    EQUILIBRIUM EQUATIONS HAVE CONVERGED
          ARC LENGTH INCREMENT MAY NOW INCREASE TO     4.38    

 ITERATION SUMMARY FOR THE INCREMENT:   2 TOTAL ITERATIONS, OF WHICH
   0 ARE SEVERE DISCONTINUITY ITERATIONS AND  2 ARE EQUILIBRIUM ITERATIONS.


                                INCREMENT    16 SUMMARY


     CURRENT LOAD PROPORTIONALITY FACTOR         0.2915    
     TOTAL ARC LENGTH    8.75    , INCREMENT OF ARC LENGTH    2.92    


  INCREMENT    17 STARTS. ATTEMPT NUMBER  1

  NUMBER OF EQUATIONS =    172691     NUMBER OF RHS =    2
  NUMBER OF FLOATING PT. OPERATIONS =  1.87E+10

     CHECK POINT   START OF SOLVER    

     CHECK POINT  END OF SOLVER       

       ELAPSED USER TIME (SEC)      =  0.70000    
       ELAPSED SYSTEM TIME (SEC)    =  0.10000    
       ELAPSED TOTAL CPU TIME (SEC) =  0.80000    
       ELAPSED WALLCLOCK TIME (SEC) =          1

               CONVERGENCE CHECKS FOR EQUILIBRIUM ITERATION     1


 AVERAGE FORCE                       489.       TIME AVG. FORCE        88.3    
 LARGEST RESIDUAL FORCE              19.0       AT NODE       1226   DOF  1
   INSTANCE: PANEL-1                                                                         
 LARGEST INCREMENT OF DISP.         8.497E-05   AT NODE       1226   DOF  1
   INSTANCE: PANEL-1                                                                         
 LARGEST CORRECTION TO DISP.        8.497E-05   AT NODE       1226   DOF  1
   INSTANCE: PANEL-1                                                                         
          FORCE     EQUILIBRIUM NOT ACHIEVED WITHIN TOLERANCE.

 AVERAGE MOMENT                     0.108       TIME AVG. MOMENT      1.919E-02
 LARGEST RESIDUAL MOMENT            1.481E-02   AT NODE       1225   DOF  5
   INSTANCE: PANEL-1                                                                         
 LARGEST INCREMENT OF ROTATION     -6.419E-04   AT NODE         11   DOF  5
   INSTANCE: PANEL-1                                                                         
 LARGEST CORRECTION TO ROTATION    -6.419E-04   AT NODE         11   DOF  5
   INSTANCE: PANEL-1                                                                         
          MOMENT    EQUILIBRIUM NOT ACHIEVED WITHIN TOLERANCE.

  NUMBER OF EQUATIONS =    172691     NUMBER OF RHS =    2
  NUMBER OF FLOATING PT. OPERATIONS =  1.87E+10

     CHECK POINT   START OF SOLVER    

     CHECK POINT  END OF SOLVER       

       ELAPSED USER TIME (SEC)      =  0.60000    
       ELAPSED SYSTEM TIME (SEC)    =   0.0000    
       ELAPSED TOTAL CPU TIME (SEC) =  0.60000    
       ELAPSED WALLCLOCK TIME (SEC) =          1

               CONVERGENCE CHECKS FOR EQUILIBRIUM ITERATION     2


 AVERAGE FORCE                       489.       TIME AVG. FORCE        88.2    
 LARGEST RESIDUAL FORCE            -3.790E-04   AT NODE          9   DOF  1
   INSTANCE: PANEL-1                                                                         
 LARGEST INCREMENT OF DISP.         8.496E-05   AT NODE       1226   DOF  1
   INSTANCE: PANEL-1                                                                         
 LARGEST CORRECTION TO DISP.       -1.876E-07   AT NODE      22509   DOF  3
   INSTANCE: PANEL-1                                                                         
          THE FORCE     EQUILIBRIUM EQUATIONS HAVE CONVERGED

 AVERAGE MOMENT                     0.109       TIME AVG. MOMENT      1.920E-02
 LARGEST RESIDUAL MOMENT           -3.207E-06   AT NODE          1   DOF  4
   INSTANCE: PANEL-1                                                                         
 LARGEST INCREMENT OF ROTATION     -6.418E-04   AT NODE         11   DOF  5
   INSTANCE: PANEL-1                                                                         
 LARGEST CORRECTION TO ROTATION     9.897E-07   AT NODE        261   DOF  4
   INSTANCE: PANEL-1                                                                         
          THE MOMENT    EQUILIBRIUM EQUATIONS HAVE CONVERGED
          ARC LENGTH INCREMENT MAY NOW INCREASE TO     6.57    

 ITERATION SUMMARY FOR THE INCREMENT:   2 TOTAL ITERATIONS, OF WHICH
   0 ARE SEVERE DISCONTINUITY ITERATIONS AND  2 ARE EQUILIBRIUM ITERATIONS.


                                INCREMENT    17 SUMMARY


     CURRENT LOAD PROPORTIONALITY FACTOR         0.4373    
     TOTAL ARC LENGTH    13.1    , INCREMENT OF ARC LENGTH    4.38    


  INCREMENT    18 STARTS. ATTEMPT NUMBER  1

  NUMBER OF EQUATIONS =    172691     NUMBER OF RHS =    2
  NUMBER OF FLOATING PT. OPERATIONS =  1.87E+10

     CHECK POINT   START OF SOLVER    

     CHECK POINT  END OF SOLVER       

       ELAPSED USER TIME (SEC)      =  0.50000    
       ELAPSED SYSTEM TIME (SEC)    =  0.10000    
       ELAPSED TOTAL CPU TIME (SEC) =  0.60000    
       ELAPSED WALLCLOCK TIME (SEC) =          1

               CONVERGENCE CHECKS FOR EQUILIBRIUM ITERATION     1


 AVERAGE FORCE                       726.       TIME AVG. FORCE        124.    
 LARGEST RESIDUAL FORCE              42.7       AT NODE       1226   DOF  1
   INSTANCE: PANEL-1                                                                         
 LARGEST INCREMENT OF DISP.         1.274E-04   AT NODE       1226   DOF  1
   INSTANCE: PANEL-1                                                                         
 LARGEST CORRECTION TO DISP.        1.274E-04   AT NODE       1226   DOF  1
   INSTANCE: PANEL-1                                                                         
          FORCE     EQUILIBRIUM NOT ACHIEVED WITHIN TOLERANCE.

 AVERAGE MOMENT                     0.163       TIME AVG. MOMENT      2.719E-02
 LARGEST RESIDUAL MOMENT            3.334E-02   AT NODE       1225   DOF  5
   INSTANCE: PANEL-1                                                                         
 LARGEST INCREMENT OF ROTATION     -9.625E-04   AT NODE         11   DOF  5
   INSTANCE: PANEL-1                                                                         
 LARGEST CORRECTION TO ROTATION    -9.625E-04   AT NODE         11   DOF  5
   INSTANCE: PANEL-1                                                                         
          MOMENT    EQUILIBRIUM NOT ACHIEVED WITHIN TOLERANCE.

  NUMBER OF EQUATIONS =    172691     NUMBER OF RHS =    2
  NUMBER OF FLOATING PT. OPERATIONS =  1.87E+10

     CHECK POINT   START OF SOLVER    

     CHECK POINT  END OF SOLVER       

       ELAPSED USER TIME (SEC)      =  0.60000    
       ELAPSED SYSTEM TIME (SEC)    =   0.0000    
       ELAPSED TOTAL CPU TIME (SEC) =  0.60000    
       ELAPSED WALLCLOCK TIME (SEC) =          1

               CONVERGENCE CHECKS FOR EQUILIBRIUM ITERATION     2


 AVERAGE FORCE                       726.       TIME AVG. FORCE        124.    
 LARGEST RESIDUAL FORCE            -1.559E-03   AT NODE          9   DOF  1
   INSTANCE: PANEL-1                                                                         
 LARGEST INCREMENT OF DISP.         1.274E-04   AT NODE       1226   DOF  1
   INSTANCE: PANEL-1                                                                         
 LARGEST CORRECTION TO DISP.       -4.439E-07   AT NODE      22509   DOF  3
   INSTANCE: PANEL-1                                                                         
          THE FORCE     EQUILIBRIUM EQUATIONS HAVE CONVERGED

 AVERAGE MOMENT                     0.163       TIME AVG. MOMENT      2.722E-02
 LARGEST RESIDUAL MOMENT           -1.145E-05   AT NODE          1   DOF  4
   INSTANCE: PANEL-1                                                                         
 LARGEST INCREMENT OF ROTATION     -9.622E-04   AT NODE         11   DOF  5
   INSTANCE: PANEL-1                                                                         
 LARGEST CORRECTION TO ROTATION     2.354E-06   AT NODE        261   DOF  4
   INSTANCE: PANEL-1                                                                         
          THE MOMENT    EQUILIBRIUM EQUATIONS HAVE CONVERGED
          ARC LENGTH INCREMENT MAY NOW INCREASE TO     9.85    

 ITERATION SUMMARY FOR THE INCREMENT:   2 TOTAL ITERATIONS, OF WHICH
   0 ARE SEVERE DISCONTINUITY ITERATIONS AND  2 ARE EQUILIBRIUM ITERATIONS.


                                INCREMENT    18 SUMMARY


     CURRENT LOAD PROPORTIONALITY FACTOR         0.6560    
     TOTAL ARC LENGTH    19.7    , INCREMENT OF ARC LENGTH    6.57    


  INCREMENT    19 STARTS. ATTEMPT NUMBER  1

  NUMBER OF EQUATIONS =    172691     NUMBER OF RHS =    2
  NUMBER OF FLOATING PT. OPERATIONS =  1.87E+10

     CHECK POINT   START OF SOLVER    

     CHECK POINT  END OF SOLVER       

       ELAPSED USER TIME (SEC)      =  0.50000    
       ELAPSED SYSTEM TIME (SEC)    =   0.0000    
       ELAPSED TOTAL CPU TIME (SEC) =  0.50000    
       ELAPSED WALLCLOCK TIME (SEC) =          1

               CONVERGENCE CHECKS FOR EQUILIBRIUM ITERATION     1


 AVERAGE FORCE                      1.077E+03   TIME AVG. FORCE        174.    
 LARGEST RESIDUAL FORCE              96.3       AT NODE       1226   DOF  1
   INSTANCE: PANEL-1                                                                         
 LARGEST INCREMENT OF DISP.         1.910E-04   AT NODE       1226   DOF  1
   INSTANCE: PANEL-1                                                                         
 LARGEST CORRECTION TO DISP.        1.910E-04   AT NODE       1226   DOF  1
   INSTANCE: PANEL-1                                                                         
          FORCE     EQUILIBRIUM NOT ACHIEVED WITHIN TOLERANCE.

 AVERAGE MOMENT                     0.246       TIME AVG. MOMENT      3.873E-02
 LARGEST RESIDUAL MOMENT            7.504E-02   AT NODE       1225   DOF  5
   INSTANCE: PANEL-1                                                                         
 LARGEST INCREMENT OF ROTATION     -1.443E-03   AT NODE         11   DOF  5
   INSTANCE: PANEL-1                                                                         
[...]
  NUMBER OF FLOATING PT. OPERATIONS =  1.87E+10

     CHECK POINT   START OF SOLVER    

     CHECK POINT  END OF SOLVER       

       ELAPSED USER TIME (SEC)      =  0.60000    
       ELAPSED SYSTEM TIME (SEC)    =   0.0000    
       ELAPSED TOTAL CPU TIME (SEC) =  0.60000    
       ELAPSED WALLCLOCK TIME (SEC) =          1
 

 ***WARNING: THE SYSTEM MATRIX HAS 1 NEGATIVE EIGENVALUES.
             EXPLANATIONS ARE SUGGESTED AFTER THE FIRST OCCURRENCE OF THIS MESSAGE.

               CONVERGENCE CHECKS FOR EQUILIBRIUM ITERATION     2


 AVERAGE FORCE                      5.450E+04   TIME AVG. FORCE       1.603E+04
 LARGEST RESIDUAL FORCE             0.730       AT NODE      15772   DOF  1
   INSTANCE: PANEL-1                                                                         
 LARGEST INCREMENT OF DISP.         2.558E-04   AT NODE      17731   DOF  3
   INSTANCE: PANEL-1                                                                         
 LARGEST CORRECTION TO DISP.       -5.637E-06   AT NODE      18163   DOF  3
   INSTANCE: PANEL-1                                                                         
 ESTIMATE OF DISP.    CORRECTION   -3.321E-08
 FORCE     EQUILIB. ACCEPTED BASED ON SMALL RESIDUAL AND ESTIMATED CORRECTION

 AVERAGE MOMENT                      157.       TIME AVG. MOMENT       40.6    
 LARGEST RESIDUAL MOMENT           -8.669E-03   AT NODE      15796   DOF  4
   INSTANCE: PANEL-1                                                                         
 LARGEST INCREMENT OF ROTATION     -1.345E-03   AT NODE      18951   DOF  5
   INSTANCE: PANEL-1                                                                         
 LARGEST CORRECTION TO ROTATION     6.256E-05   AT NODE      17425   DOF  5
   INSTANCE: PANEL-1                                                                         
          ROTATION CORRECTION TOO LARGE COMPARED TO ROTATION INCREMENT

  NUMBER OF EQUATIONS =    172691     NUMBER OF RHS =    2
  NUMBER OF FLOATING PT. OPERATIONS =  1.87E+10

     CHECK POINT   START OF SOLVER    

     CHECK POINT  END OF SOLVER       

       ELAPSED USER TIME (SEC)      =  0.80000    
       ELAPSED SYSTEM TIME (SEC)    =   0.0000    
       ELAPSED TOTAL CPU TIME (SEC) =  0.80000    
       ELAPSED WALLCLOCK TIME (SEC) =          2
 

 ***WARNING: THE SYSTEM MATRIX HAS 1 NEGATIVE EIGENVALUES.
             EXPLANATIONS ARE SUGGESTED AFTER THE FIRST OCCURRENCE OF THIS MESSAGE.

               CONVERGENCE CHECKS FOR EQUILIBRIUM ITERATION     3


 AVERAGE FORCE                      5.450E+04   TIME AVG. FORCE       1.603E+04
 LARGEST RESIDUAL FORCE            -9.657E-02   AT NODE      15812   DOF  1
   INSTANCE: PANEL-1                                                                         
 LARGEST INCREMENT OF DISP.         2.558E-04   AT NODE      17731   DOF  3
   INSTANCE: PANEL-1                                                                         
 LARGEST CORRECTION TO DISP.        9.606E-08   AT NODE      15514   DOF  3
   INSTANCE: PANEL-1                                                                         
          THE FORCE     EQUILIBRIUM EQUATIONS HAVE CONVERGED

 AVERAGE MOMENT                      157.       TIME AVG. MOMENT       40.6    
 LARGEST RESIDUAL MOMENT           -7.093E-04   AT NODE      15963   DOF  6
   INSTANCE: PANEL-1                                                                         
 LARGEST INCREMENT OF ROTATION     -1.346E-03   AT NODE      18951   DOF  5
   INSTANCE: PANEL-1                                                                         
 LARGEST CORRECTION TO ROTATION     2.842E-06   AT NODE        844   DOF  4
   INSTANCE: PANEL-1                                                                         
          THE MOMENT    EQUILIBRIUM EQUATIONS HAVE CONVERGED
          ARC LENGTH INCREMENT MAY NOW INCREASE TO     14.2    

 ITERATION SUMMARY FOR THE INCREMENT:   3 TOTAL ITERATIONS, OF WHICH
   0 ARE SEVERE DISCONTINUITY ITERATIONS AND  3 ARE EQUILIBRIUM ITERATIONS.


                                INCREMENT    48 SUMMARY


     CURRENT LOAD PROPORTIONALITY FACTOR          16.40    
     TOTAL ARC LENGTH   2.254E+04, INCREMENT OF ARC LENGTH    9.48    


  INCREMENT    49 STARTS. ATTEMPT NUMBER  1

  NUMBER OF EQUATIONS =    172691     NUMBER OF RHS =    2
  NUMBER OF FLOATING PT. OPERATIONS =  1.87E+10

     CHECK POINT   START OF SOLVER    

     CHECK POINT  END OF SOLVER       

       ELAPSED USER TIME (SEC)      =  0.60000    
       ELAPSED SYSTEM TIME (SEC)    =   0.0000    
       ELAPSED TOTAL CPU TIME (SEC) =  0.60000    
       ELAPSED WALLCLOCK TIME (SEC) =          1
 

 ***WARNING: THE SYSTEM MATRIX HAS 1 NEGATIVE EIGENVALUES.
             EXPLANATIONS ARE SUGGESTED AFTER THE FIRST OCCURRENCE OF THIS MESSAGE.

               CONVERGENCE CHECKS FOR EQUILIBRIUM ITERATION     1


 AVERAGE FORCE                      5.454E+04   TIME AVG. FORCE       1.682E+04
 LARGEST RESIDUAL FORCE              260.       AT NODE          3   DOF  1
   INSTANCE: PANEL-1                                                                         
 LARGEST INCREMENT OF DISP.         3.911E-04   AT NODE      17731   DOF  3
   INSTANCE: PANEL-1                                                                         
 LARGEST CORRECTION TO DISP.        3.911E-04   AT NODE      17731   DOF  3
   INSTANCE: PANEL-1                                                                         
          FORCE     EQUILIBRIUM NOT ACHIEVED WITHIN TOLERANCE.

 AVERAGE MOMENT                      158.       TIME AVG. MOMENT       43.0    
 LARGEST RESIDUAL MOMENT           -0.472       AT NODE      15943   DOF  6
   INSTANCE: PANEL-1                                                                         
 LARGEST INCREMENT OF ROTATION     -2.118E-03   AT NODE      18951   DOF  5
   INSTANCE: PANEL-1                                                                         
 LARGEST CORRECTION TO ROTATION    -2.118E-03   AT NODE      18951   DOF  5
   INSTANCE: PANEL-1                                                                         
          MOMENT    EQUILIBRIUM NOT ACHIEVED WITHIN TOLERANCE.

  NUMBER OF EQUATIONS =    172691     NUMBER OF RHS =    2
  NUMBER OF FLOATING PT. OPERATIONS =  1.87E+10

     CHECK POINT   START OF SOLVER    

     CHECK POINT  END OF SOLVER       

       ELAPSED USER TIME (SEC)      =  0.60000    
       ELAPSED SYSTEM TIME (SEC)    =   0.0000    
       ELAPSED TOTAL CPU TIME (SEC) =  0.60000    
       ELAPSED WALLCLOCK TIME (SEC) =          1
 

 ***WARNING: THE SYSTEM MATRIX HAS 1 NEGATIVE EIGENVALUES.
             EXPLANATIONS ARE SUGGESTED AFTER THE FIRST OCCURRENCE OF THIS MESSAGE.

               CONVERGENCE CHECKS FOR EQUILIBRIUM ITERATION     2


 AVERAGE FORCE                      5.454E+04   TIME AVG. FORCE       1.682E+04
 LARGEST RESIDUAL FORCE              1.09       AT NODE      15772   DOF  1
   INSTANCE: PANEL-1                                                                         
 LARGEST INCREMENT OF DISP.         4.037E-04   AT NODE      17880   DOF  3
   INSTANCE: PANEL-1                                                                         
 LARGEST CORRECTION TO DISP.       -1.526E-05   AT NODE      18163   DOF  3
   INSTANCE: PANEL-1                                                                         
 ESTIMATE OF DISP.    CORRECTION   -6.407E-08
 FORCE     EQUILIB. ACCEPTED BASED ON SMALL RESIDUAL AND ESTIMATED CORRECTION

 AVERAGE MOMENT                      158.       TIME AVG. MOMENT       43.0    
 LARGEST RESIDUAL MOMENT           -1.319E-02   AT NODE      15813   DOF  4
   INSTANCE: PANEL-1                                                                         
 LARGEST INCREMENT OF ROTATION     -2.288E-03   AT NODE      18951   DOF  5
   INSTANCE: PANEL-1                                                                         
 LARGEST CORRECTION TO ROTATION     1.700E-04   AT NODE      17425   DOF  5
   INSTANCE: PANEL-1                                                                         
          ROTATION CORRECTION TOO LARGE COMPARED TO ROTATION INCREMENT

  NUMBER OF EQUATIONS =    172691     NUMBER OF RHS =    2
  NUMBER OF FLOATING PT. OPERATIONS =  1.87E+10

     CHECK POINT   START OF SOLVER    

     CHECK POINT  END OF SOLVER       

       ELAPSED USER TIME (SEC)      =  0.60000    
       ELAPSED SYSTEM TIME (SEC)    =   0.0000    
       ELAPSED TOTAL CPU TIME (SEC) =  0.60000    
       ELAPSED WALLCLOCK TIME (SEC) =          1
 

 ***WARNING: THE SYSTEM MATRIX HAS 1 NEGATIVE EIGENVALUES.
             EXPLANATIONS ARE SUGGESTED AFTER THE FIRST OCCURRENCE OF THIS MESSAGE.

               CONVERGENCE CHECKS FOR EQUILIBRIUM ITERATION     3


 AVERAGE FORCE                      5.454E+04   TIME AVG. FORCE       1.682E+04
 LARGEST RESIDUAL FORCE             0.153       AT NODE       7170   DOF  1
   INSTANCE: PANEL-1                                                                         
 LARGEST INCREMENT OF DISP.         4.057E-04   AT NODE      17880   DOF  3
   INSTANCE: PANEL-1                                                                         
 LARGEST CORRECTION TO DISP.       -2.452E-06   AT NODE      18163   DOF  3
   INSTANCE: PANEL-1                                                                         
          THE FORCE     EQUILIBRIUM EQUATIONS HAVE CONVERGED

 AVERAGE MOMENT                      158.       TIME AVG. MOMENT       43.0    
 LARGEST RESIDUAL MOMENT            1.778E-03   AT NODE       1023   DOF  6
   INSTANCE: PANEL-1                                                                         
 LARGEST INCREMENT OF ROTATION     -2.315E-03   AT NODE      18951   DOF  5
   INSTANCE: PANEL-1                                                                         
 LARGEST CORRECTION TO ROTATION     2.721E-05   AT NODE      17425   DOF  5
   INSTANCE: PANEL-1                                                                         
 ESTIMATE OF ROTATION CORRECTION   -3.667E-06
 MOMENT    EQUILIB. ACCEPTED BASED ON SMALL RESIDUAL AND ESTIMATED CORRECTION
          ARC LENGTH INCREMENT MAY NOW INCREASE TO     21.3    

 ITERATION SUMMARY FOR THE INCREMENT:   3 TOTAL ITERATIONS, OF WHICH
   0 ARE SEVERE DISCONTINUITY ITERATIONS AND  3 ARE EQUILIBRIUM ITERATIONS.


                                INCREMENT    49 SUMMARY


     CURRENT LOAD PROPORTIONALITY FACTOR          16.40    
     TOTAL ARC LENGTH   2.255E+04, INCREMENT OF ARC LENGTH    14.2    


  INCREMENT    50 STARTS. ATTEMPT NUMBER  1

  NUMBER OF EQUATIONS =    172691     NUMBER OF RHS =    2
  NUMBER OF FLOATING PT. OPERATIONS =  1.87E+10

     CHECK POINT   START OF SOLVER    

     CHECK POINT  END OF SOLVER       

       ELAPSED USER TIME (SEC)      =  0.70000    
       ELAPSED SYSTEM TIME (SEC)    =   0.0000    
       ELAPSED TOTAL CPU TIME (SEC) =  0.70000    
       ELAPSED WALLCLOCK TIME (SEC) =          1
 

 ***WARNING: THE SYSTEM MATRIX HAS 1 NEGATIVE EIGENVALUES.
             EXPLANATIONS ARE SUGGESTED AFTER THE FIRST OCCURRENCE OF THIS MESSAGE.

               CONVERGENCE CHECKS FOR EQUILIBRIUM ITERATION     1


 AVERAGE FORCE                      5.459E+04   TIME AVG. FORCE       1.757E+04
 LARGEST RESIDUAL FORCE             -553.       AT NODE          9   DOF  1
   INSTANCE: PANEL-1                                                                         
 LARGEST INCREMENT OF DISP.         6.341E-04   AT NODE      17581   DOF  3
   INSTANCE: PANEL-1                                                                         
 LARGEST CORRECTION TO DISP.        6.341E-04   AT NODE      17581   DOF  3
   INSTANCE: PANEL-1                                                                         
          FORCE     EQUILIBRIUM NOT ACHIEVED WITHIN TOLERANCE.

 AVERAGE MOMENT                      158.       TIME AVG. MOMENT       45.3    
 LARGEST RESIDUAL MOMENT           -0.706       AT NODE      15943   DOF  6
   INSTANCE: PANEL-1                                                                         
 LARGEST INCREMENT OF ROTATION     -3.817E-03   AT NODE      18951   DOF  5
   INSTANCE: PANEL-1                                                                         
 LARGEST CORRECTION TO ROTATION    -3.817E-03   AT NODE      18951   DOF  5
   INSTANCE: PANEL-1                                                                         
          MOMENT    EQUILIBRIUM NOT ACHIEVED WITHIN TOLERANCE.

  NUMBER OF EQUATIONS =    172691     NUMBER OF RHS =    2
  NUMBER OF FLOATING PT. OPERATIONS =  1.87E+10

     CHECK POINT   START OF SOLVER    

     CHECK POINT  END OF SOLVER       

       ELAPSED USER TIME (SEC)      =  0.80000    
       ELAPSED SYSTEM TIME (SEC)    =   0.0000    
       ELAPSED TOTAL CPU TIME (SEC) =  0.80000    
       ELAPSED WALLCLOCK TIME (SEC) =          1
 

 ***WARNING: THE SYSTEM MATRIX HAS 1 NEGATIVE EIGENVALUES.
             EXPLANATIONS ARE SUGGESTED AFTER THE FIRST OCCURRENCE OF THIS MESSAGE.

               CONVERGENCE CHECKS FOR EQUILIBRIUM ITERATION     2


 AVERAGE FORCE                      5.458E+04   TIME AVG. FORCE       1.757E+04
 LARGEST RESIDUAL FORCE              1.57       AT NODE      15772   DOF  1
   INSTANCE: PANEL-1                                                                         
 LARGEST INCREMENT OF DISP.         6.715E-04   AT NODE      17581   DOF  3
   INSTANCE: PANEL-1                                                                         
 LARGEST CORRECTION TO DISP.       -4.384E-05   AT NODE      18163   DOF  3
   INSTANCE: PANEL-1                                                                         
 ESTIMATE OF DISP.    CORRECTION    1.246E-07
 FORCE     EQUILIB. ACCEPTED BASED ON SMALL RESIDUAL AND ESTIMATED CORRECTION

 AVERAGE MOMENT                      158.       TIME AVG. MOMENT       45.3    
 LARGEST RESIDUAL MOMENT            3.204E-02   AT NODE       1023   DOF  6
   INSTANCE: PANEL-1                                                                         
 LARGEST INCREMENT OF ROTATION      4.307E-03   AT NODE      17425   DOF  5
   INSTANCE: PANEL-1                                                                         
 LARGEST CORRECTION TO ROTATION     4.897E-04   AT NODE      17425   DOF  5
   INSTANCE: PANEL-1                                                                         
          ROTATION CORRECTION TOO LARGE COMPARED TO ROTATION INCREMENT

  NUMBER OF EQUATIONS =    172691     NUMBER OF RHS =    2
  NUMBER OF FLOATING PT. OPERATIONS =  1.87E+10

     CHECK POINT   START OF SOLVER    

     CHECK POINT  END OF SOLVER       

       ELAPSED USER TIME (SEC)      =  0.80000    
       ELAPSED SYSTEM TIME (SEC)    =   0.0000    
       ELAPSED TOTAL CPU TIME (SEC) =  0.80000    
       ELAPSED WALLCLOCK TIME (SEC) =          1
 

 ***WARNING: THE SYSTEM MATRIX HAS 1 NEGATIVE EIGENVALUES.
             EXPLANATIONS ARE SUGGESTED AFTER THE FIRST OCCURRENCE OF THIS MESSAGE.

               CONVERGENCE CHECKS FOR EQUILIBRIUM ITERATION     3


 AVERAGE FORCE                      5.459E+04   TIME AVG. FORCE       1.757E+04
 LARGEST RESIDUAL FORCE             -1.20       AT NODE      17123   DOF  1
   INSTANCE: PANEL-1                                                                         
 LARGEST INCREMENT OF DISP.         7.040E-04   AT NODE      17581   DOF  3
   INSTANCE: PANEL-1                                                                         
 LARGEST CORRECTION TO DISP.       -3.835E-05   AT NODE      18163   DOF  3
   INSTANCE: PANEL-1                                                                         
          DISP.    CORRECTION TOO LARGE COMPARED TO DISP.    INCREMENT

 AVERAGE MOMENT                      158.       TIME AVG. MOMENT       45.3    
 LARGEST RESIDUAL MOMENT            2.807E-02   AT NODE       1023   DOF  6
   INSTANCE: PANEL-1                                                                         
 LARGEST INCREMENT OF ROTATION      4.735E-03   AT NODE      17425   DOF  5
   INSTANCE: PANEL-1                                                                         
 LARGEST CORRECTION TO ROTATION     4.281E-04   AT NODE      17425   DOF  5
   INSTANCE: PANEL-1                                                                         
          ROTATION CORRECTION TOO LARGE COMPARED TO ROTATION INCREMENT

  NUMBER OF EQUATIONS =    172691     NUMBER OF RHS =    2
  NUMBER OF FLOATING PT. OPERATIONS =  1.87E+10

     CHECK POINT   START OF SOLVER    

     CHECK POINT  END OF SOLVER       

       ELAPSED USER TIME (SEC)      =  0.70000    
       ELAPSED SYSTEM TIME (SEC)    =   0.0000    
       ELAPSED TOTAL CPU TIME (SEC) =  0.70000    
       ELAPSED WALLCLOCK TIME (SEC) =          1
 

 ***WARNING: THE SYSTEM MATRIX HAS 1 NEGATIVE EIGENVALUES.
             EXPLANATIONS ARE SUGGESTED AFTER THE FIRST OCCURRENCE OF THIS MESSAGE.

               CONVERGENCE CHECKS FOR EQUILIBRIUM ITERATION     4


 AVERAGE FORCE                      5.459E+04   TIME AVG. FORCE       1.757E+04
 LARGEST RESIDUAL FORCE             4.052E-02   AT NODE      16094   DOF  1
   INSTANCE: PANEL-1                                                                         
 LARGEST INCREMENT OF DISP.         7.053E-04   AT NODE      17581   DOF  3
   INSTANCE: PANEL-1                                                                         
 LARGEST CORRECTION TO DISP.       -1.708E-06   AT NODE      18163   DOF  3
   INSTANCE: PANEL-1                                                                         
          THE FORCE     EQUILIBRIUM EQUATIONS HAVE CONVERGED

 AVERAGE MOMENT                      158.       TIME AVG. MOMENT       45.3    
 LARGEST RESIDUAL MOMENT            1.240E-03   AT NODE       1023   DOF  6
   INSTANCE: PANEL-1                                                                         
 LARGEST INCREMENT OF ROTATION      4.753E-03   AT NODE      17425   DOF  5
   INSTANCE: PANEL-1                                                                         
 LARGEST CORRECTION TO ROTATION     1.862E-05   AT NODE      17425   DOF  5
   INSTANCE: PANEL-1                                                                         
          THE MOMENT    EQUILIBRIUM EQUATIONS HAVE CONVERGED
          ARC LENGTH INCREMENT MAY NOW INCREASE TO     32.0    

 ITERATION SUMMARY FOR THE INCREMENT:   4 TOTAL ITERATIONS, OF WHICH
   0 ARE SEVERE DISCONTINUITY ITERATIONS AND  4 ARE EQUILIBRIUM ITERATIONS.


                                INCREMENT    50 SUMMARY


     CURRENT LOAD PROPORTIONALITY FACTOR          16.39    
     TOTAL ARC LENGTH   2.257E+04, INCREMENT OF ARC LENGTH    21.3    


     THE NUMBER OF INCS ON THE *STEP CARD HAS BEEN COMPLETED - THE STEP ENDS



     ANALYSIS SUMMARY:
     TOTAL OF         50  INCREMENTS
                       5  CUTBACKS IN AUTOMATIC INCREMENTATION
                     191  ITERATIONS INCLUDING CONTACT ITERATIONS IF PRESENT
                     191  PASSES THROUGH THE EQUATION SOLVER OF WHICH 
                     191  INVOLVE MATRIX DECOMPOSITION, INCLUDING
                       0  DECOMPOSITION(S) OF THE MASS MATRIX
                       1  REORDERING OF EQUATIONS TO MINIMIZE WAVEFRONT
                       0  ADDITIONAL RESIDUAL EVALUATIONS FOR LINE SEARCHES
                       0  ADDITIONAL OPERATOR EVALUATIONS FOR LINE SEARCHES
                       0  WARNING MESSAGES DURING USER INPUT PROCESSING
                      57  WARNING MESSAGES DURING ANALYSIS
                       0  ANALYSIS WARNINGS ARE NUMERICAL PROBLEM MESSAGES
                      57  ANALYSIS WARNINGS ARE NEGATIVE EIGENVALUE MESSAGES
                       0  ERROR MESSAGES



     JOB TIME SUMMARY
       USER TIME (SEC)      =   171.50    
       SYSTEM TIME (SEC)    =   5.8000    
       TOTAL CPU TIME (SEC) =   177.30    
       WALLCLOCK TIME (SEC) =        303
