*Heading
** Job name: SP1-T1-e Model name: eigen
** Generated by: Abaqus/CAE 2022
*Preprint, echo=NO, model=NO, history=NO, contact=NO
**
** PARTS
**
*Part, name=panel
*Node
      1,          1.5,           0.,           3.
      2,   1.48000002,           0.,           3.
      3,   1.46000004,           0.,           3.
      4,   1.44000006,           0.,           3.
      5,   1.41999996,           0.,           3.
      6,   1.39999998,           0.,           3.
      7,         1.38,           0.,           3.
      8,   1.36000001,           0.,           3.
      9,   1.34000003,           0.,           3.
     10,   1.32000005,           0.,           3.
     11,   1.29999995,           0.,           3.
     12,   1.27999997,           0.,           3.
     13,   1.25999999,           0.,           3.
     14,   1.24000001,           0.,           3.
     15,   1.22000003,           0.,           3.
     16,   1.20000005,           0.,           3.
     17,   1.17999995,           0.,           3.
     18,   1.15999997,           0.,           3.
     19,   1.13999999,           0.,           3.
     20,         1.12,           0.,           3.
** ... 22781 like lines cut
*Element, type=S4R
    1,     1,     2,   153,   152
    2,     2,     3,   154,   153
    3,     3,     4,   155,   154
    4,     4,     5,   156,   155
    5,     5,     6,   157,   156
    6,     6,     7,   158,   157
    7,     7,     8,   159,   158
    8,     8,     9,   160,   159
    9,     9,    10,   161,   160
   10,    10,    11,   162,   161
   11,    11,    12,   163,   162
   12,    12,    13,   164,   163
   13,    13,    14,   165,   164
   14,    14,    15,   166,   165
   15,    15,    16,   167,   166
   16,    16,    17,   168,   167
   17,    17,    18,   169,   168
   18,    18,    19,   170,   169
   19,    19,    20,   171,   170
   20,    20,    21,   172,   171
** ... 22480 like lines cut
*Nset, nset=_PickedSet4_#1, internal, generate
     1,  22801,      1
*Elset, elset=_PickedSet4_#1, internal, generate
     1,  22500,      1
** Section: plate
*Shell Section, elset=_PickedSet4_#1, material=M1
0.01, 5
*End Part
**  
**
** ASSEMBLY
**
*Assembly, name=Assembly
**  
*Instance, name=panel-1, part=panel
        -1.5,           0.,           0.
        -1.5,           0.,           0., -2.07735026918963, 0.577350269189626, -0.577350269189626,         120.
*End Instance
**  
*Nset, nset=Follower, instance=panel-1, generate
 22651,  22800,      1
*Nset, nset=Main, instance=panel-1
 22801,
*Nset, nset=_PickedSet10, internal, instance=panel-1, generate
 22651,  22801,      1
*Nset, nset=_PickedSet11, internal, instance=panel-1
     1,     2,     3,     4,     5,     6,     7,     8,     9,    10,    11,    12,    13,    14,    15,    16
    17,    18,    19,    20,    21,    22,    23,    24,    25,    26,    27,    28,    29,    30,    31,    32
    33,    34,    35,    36,    37,    38,    39,    40,    41,    42,    43,    44,    45,    46,    47,    48
    49,    50,    51,    52,    53,    54,    55,    56,    57,    58,    59,    60,    61,    62,    63,    64
    65,    66,    67,    68,    69,    70,    71,    72,    73,    74,    75,    76,    77,    78,    79,    80
    81,    82,    83,    84,    85,    86,    87,    88,    89,    90,    91,    92,    93,    94,    95,    96
    97,    98,    99,   100,   101,   102,   103,   104,   105,   106,   107,   108,   109,   110,   111,   112
   113,   114,   115,   116,   117,   118,   119,   120,   121,   122,   123,   124,   125,   126,   127,   128
   129,   130,   131,   132,   133,   134,   135,   136,   137,   138,   139,   140,   141,   142,   143,   144
   145,   146,   147,   148,   149,   150,   151,   152,   302,   303,   453,   454,   604,   605,   755,   756
   906,   907,  1057,  1058,  1208,  1209,  1359,  1360,  1510,  1511,  1661,  1662,  1812,  1813,  1963,  1964
  2114,  2115,  2265,  2266,  2416,  2417,  2567,  2568,  2718,  2719,  2869,  2870,  3020,  3021,  3171,  3172
  3322,  3323,  3473,  3474,  3624,  3625,  3775,  3776,  3926,  3927,  4077,  4078,  4228,  4229,  4379,  4380
  4530,  4531,  4681,  4682,  4832,  4833,  4983,  4984,  5134,  5135,  5285,  5286,  5436,  5437,  5587,  5588
  5738,  5739,  5889,  5890,  6040,  6041,  6191,  6192,  6342,  6343,  6493,  6494,  6644,  6645,  6795,  6796
  6946,  6947,  7097,  7098,  7248,  7249,  7399,  7400,  7550,  7551,  7701,  7702,  7852,  7853,  8003,  8004
  8154,  8155,  8305,  8306,  8456,  8457,  8607,  8608,  8758,  8759,  8909,  8910,  9060,  9061,  9211,  9212
  9362,  9363,  9513,  9514,  9664,  9665,  9815,  9816,  9966,  9967, 10117, 10118, 10268, 10269, 10419, 10420
 10570, 10571, 10721, 10722, 10872, 10873, 11023, 11024, 11174, 11175, 11325, 11326, 11476, 11477, 11627, 11628
 11778, 11779, 11929, 11930, 12080, 12081, 12231, 12232, 12382, 12383, 12533, 12534, 12684, 12685, 12835, 12836
** ... 18 like lines cut
*Nset, nset=_PickedSet14, internal, instance=panel-1, generate
   1,  151,    1
*Nset, nset=_PickedSet15, internal, instance=panel-1
 11401,
** Constraint: Constraint-1
*Equation
2
Follower, 1, 1.
Main, 1, -1.
*End Assembly
** 
** MATERIALS
** 
** Isotropic Steel
*Material, name=M1
*Density
7850.,
*Elastic
 2.1e+11, 0.3
** ----------------------------------------------------------------
** 
** STEP: eigen
** 
*Step, name=eigen, nlgeom=NO, perturbation
*Buckle
5, , 10, 30
** 
** BOUNDARY CONDITIONS
** 
** Name: BC-1 Type: Displacement/Rotation
*Boundary, op=NEW, load case=1
_PickedSet11, 3, 3
*Boundary, op=NEW, load case=2
_PickedSet11, 3, 3
** Name: BC-2 Type: Displacement/Rotation
*Boundary, op=NEW, load case=1
_PickedSet14, 1, 1
*Boundary, op=NEW, load case=2
_PickedSet14, 1, 1
** Name: BC-3 Type: Displacement/Rotation
*Boundary, op=NEW, load case=1
_PickedSet15, 2, 2
*Boundary, op=NEW, load case=2
_PickedSet15, 2, 2
** 
** LOADS
** 
** Name: Load-1   Type: Concentrated force
*Cload
_PickedSet10, 1, 10000.
** 
** OUTPUT REQUESTS
** 
*Restart, write, frequency=0
** 
** FIELD OUTPUT: F-Output-1
** 
*Output, field, variable=PRESELECT
*End Step
