 Abaqus/Standard 2020                  DATE 08-Sep-2025 TIME 16:28:04
 SUMMARY OF JOB INFORMATION:
 STEP  INC ATT SEVERE EQUIL TOTAL  TOTAL      STEP       INC OF       DOF    IF
               DISCON ITERS ITERS  TIME/    TIME/LPF    TIME/LPF    MONITOR RIKS
               ITERS               FREQ
   1     1   1     0     2     2             0.0500     0.04999               R
   1     2   1     0     2     2             0.0999     0.04995               R
   1     3   1     0     2     2             0.175      0.07487               R
   1     4   1     0     2     2             0.287      0.1122                R
   1     5   1     0     2     2             0.455      0.1679                R
   1     6   1     0     2     2             0.706      0.2511                R
   1     7   1     0     3     3             1.08       0.3745                R
   1     8   1     0     3     3             1.64       0.5560                R
   1     9   1     0     3     3             2.45       0.8164                R
   1    10   1     0     3     3             3.62       1.162                 R
   1    11   1     0     4     4             5.11       1.493                 R
   1    12   1     0     4     4             6.53       1.418                 R
   1    13   1     0     3     3             7.47       0.9397                R
   1    14   1     0     3     3             8.08       0.6088                R
   1    15   1     0     4     4             8.53       0.4560                R
   1    16   1     0     4     4             8.93       0.4021                R
   1    17   1     0     4     4             9.33       0.3995                R
   1    18   1     0     4     4             9.76       0.4284                R
   1    19   1     0     4     4             10.2       0.4885                R
   1    20   1     0     4     4             10.8       0.5875                R
   1    21   1     0     4     4             11.5       0.7106                R
                          
 THE ANALYSIS HAS COMPLETED SUCCESSFULLY
