1

   Abaqus 2022                                  Date 07-Sep-2025   Time 20:39:24
   For use by UNIVERSITY OF BRITISH COLUMBIA under license from Dassault Systemes or its subsidiary.

                                                                                 
                                                                                 
 STEP    1     INCREMENT     1     STEP TIME    0.00    


                        S T E P       1     C A L C U L A T I O N   O F   E I G E N V A L U E S

                                            F O R   B U C K L I N G   P R E D I C T I O N



                                                                                          

     THE SUBSPACE ITERATION METHOD IS USED FOR THIS ANALYSIS
     NUMBER OF EIGENVALUES                      5
     MAXIMUM NUMBER OF ITERATIONS                     30
     NUMBER OF VECTORS IN ITERATION                   10
     THE BUCKLING MODE CONSTRAINTS 
      ARE DEFINED AS LOAD CASE 2
                              ONLY INITIAL STRESS EFFECTS ARE INCLUDED IN THE
                              STIFFNESS MATRIX

     THIS IS A LINEAR PERTURBATION STEP.
     ALL LOADS ARE DEFINED AS CHANGE IN LOAD TO THE REFERENCE STATE

     EXTRAPOLATION WILL NOT BE USED

     CHARACTERISTIC ELEMENT LENGTH     2.000E-02

     DETAILS REGARDING ACTUAL SOLUTION WAVEFRONT REQUESTED

     DETAILED OUTPUT OF DIAGNOSTICS TO DATABASE REQUESTED

     PRINT OF INCREMENT NUMBER, TIME, ETC., TO THE MESSAGE FILE EVERY     1  INCREMENTS
 
	SYMMETRIC DIRECT SPARSE SOLVER RUNNING ON
 	1 HOST:        1 MPI RANK  x 1 THREAD
 	NUMBER OF EQUATIONS:     136656
 	NUMBER OF RHS:           1
 	NUMBER OF FLOPS:         1.438e+10

     CHECK POINT   START OF SOLVER    

     CHECK POINT  END OF SOLVER       

       ELAPSED USER TIME (SEC)      =   1.5000    
       ELAPSED SYSTEM TIME (SEC)    =  0.20000    
       ELAPSED TOTAL CPU TIME (SEC) =   1.7000    
       ELAPSED WALLCLOCK TIME (SEC) =          2
 
     ITERATION 1
      1       3.020572e+00     
      2       1.118582e+01     
      3       2.918146e+01     
      4       4.755944e+01     
      5       6.486349e+01     
      6       7.101302e+01     
      7       1.055107e+02     
      8       1.271753e+02     
      9       1.492514e+02     
      10      1.681166e+02     
 
     NUMBER OF EIGENVALUES CONVERGED UPTO THIS ITERATION = 0
 
     ITERATION 2
      1       1.690131e-01     
      2       2.689275e-01     
      3       5.393306e-01     
      4       8.006030e-01     
      5       9.291808e-01     
      6       1.432663e+00     
      7       1.824140e+00     
      8       2.061409e+00     
      9       2.218131e+00     
      10      3.350117e+00     
 
     NUMBER OF EIGENVALUES CONVERGED UPTO THIS ITERATION = 0
 
     ITERATION 3
      1       1.672478e-01     
      2       2.618362e-01     
      3       4.701394e-01     
      4       6.907566e-01     
      5       7.891938e-01     
      6       9.302611e-01     
      7       1.281073e+00     
      8       1.370120e+00     
      9       1.632114e+00     
      10      1.888786e+00     
 
     NUMBER OF EIGENVALUES CONVERGED UPTO THIS ITERATION = 0
 
     ITERATION 4
      1       1.672322e-01     
      2       2.615350e-01     
      3       4.657325e-01     
      4       6.741912e-01     
      5       7.720270e-01     
      6       8.472740e-01     
      7       1.126640e+00     
      8       1.206246e+00     
      9       1.469935e+00     
      10      1.780736e+00     
 
     NUMBER OF EIGENVALUES CONVERGED UPTO THIS ITERATION = 0
 
     ITERATION 5
      1       1.672321e-01     
      2       2.615159e-01     
      3       4.653367e-01     
      4       6.703393e-01     
      5       7.663197e-01     
      6       8.121650e-01     
      7       1.078023e+00     
      8       1.154871e+00     
      9       1.380252e+00     
      10      1.724080e+00     
 
     NUMBER OF EIGENVALUES CONVERGED UPTO THIS ITERATION = 0
 
     ITERATION 6
      1       1.672321e-01     
      2       2.615147e-01     
      3       4.652894e-01     
      4       6.693102e-01     
      5       7.621169e-01     
      6       7.963284e-01     
      7       1.060251e+00     
      8       1.133458e+00     
      9       1.300549e+00     
      10      1.675229e+00     
 
     NUMBER OF EIGENVALUES CONVERGED UPTO THIS ITERATION = 1
 
     ITERATION 7
      1       1.672321e-01     
      2       2.615147e-01     
      3       4.652828e-01     
      4       6.690390e-01     
      5       7.592132e-01     
      6       7.896175e-01     
      7       1.052740e+00     
      8       1.121365e+00     
      9       1.226206e+00     
      10      1.629128e+00     
 
     NUMBER OF EIGENVALUES CONVERGED UPTO THIS ITERATION = 2
 
     ITERATION 8
      1       1.672321e-01     
      2       2.615147e-01     
      3       4.652819e-01     
      4       6.689705e-01     
      5       7.576943e-01     
      6       7.868700e-01     
      7       1.049322e+00     
      8       1.106990e+00     
      9       1.172076e+00     
      10      1.587638e+00     
 
     NUMBER OF EIGENVALUES CONVERGED UPTO THIS ITERATION = 2
 
     ITERATION 9
      1       1.672321e-01     
      2       2.615147e-01     
      3       4.652818e-01     
      4       6.689544e-01     
      5       7.570834e-01     
      6       7.858234e-01     
      7       1.047713e+00     
      8       1.085255e+00     
      9       1.147803e+00     
      10      1.552200e+00     
 
     NUMBER OF EIGENVALUES CONVERGED UPTO THIS ITERATION = 3
 
     ITERATION 10
      1       1.672321e-01     
      2       2.615147e-01     
      3       4.652818e-01     
      4       6.689509e-01     
      5       7.568859e-01     
      6       7.854704e-01     
      7       1.046942e+00     
      8       1.066736e+00     
      9       1.139689e+00     
      10      1.522817e+00     
 
     NUMBER OF EIGENVALUES CONVERGED UPTO THIS ITERATION = 3
 
     ITERATION 11
      1       1.672321e-01     
      2       2.615147e-01     
      3       4.652818e-01     
      4       6.689502e-01     
      5       7.568314e-01     
      6       7.853654e-01     
      7       1.046569e+00     
      8       1.056011e+00     
      9       1.136512e+00     
      10      1.498890e+00     
 
     NUMBER OF EIGENVALUES CONVERGED UPTO THIS ITERATION = 3
 
     ITERATION 12
      1       1.672321e-01     
      2       2.615147e-01     
      3       4.652818e-01     
      4       6.689501e-01     
      5       7.568178e-01     
      6       7.853370e-01     
      7       1.046388e+00     
      8       1.050675e+00     
      9       1.135048e+00     
      10      1.479692e+00     
 
     NUMBER OF EIGENVALUES CONVERGED UPTO THIS ITERATION = 4
 
     ITERATION 13
      1       1.672321e-01     
      2       2.615147e-01     
      3       4.652818e-01     
      4       6.689501e-01     
      5       7.568147e-01     
      6       7.853298e-01     
      7       1.046301e+00     
      8       1.048207e+00     
      9       1.134321e+00     
      10      1.464488e+00     
 
     NUMBER OF EIGENVALUES CONVERGED UPTO THIS ITERATION = 4
 
     ITERATION 14
      1       1.672321e-01     
      2       2.615147e-01     
      3       4.652818e-01     
      4       6.689501e-01     
      5       7.568139e-01     
      6       7.853281e-01     
      7       1.046258e+00     
      8       1.047111e+00     
      9       1.133951e+00     
      10      1.452572e+00     
 
     NUMBER OF EIGENVALUES CONVERGED UPTO THIS ITERATION = 5


          THE ANALYSIS HAS BEEN COMPLETED



     ANALYSIS SUMMARY:
     TOTAL OF          1  INCREMENTS
                       0  CUTBACKS IN AUTOMATIC INCREMENTATION
                       1  ITERATIONS INCLUDING CONTACT ITERATIONS IF PRESENT
                       1  PASSES THROUGH THE EQUATION SOLVER OF WHICH 
                       1  INVOLVE MATRIX DECOMPOSITION, INCLUDING
                       0  DECOMPOSITION(S) OF THE MASS MATRIX
                       1  REORDERING OF EQUATIONS TO MINIMIZE WAVEFRONT
                       0  ADDITIONAL RESIDUAL EVALUATIONS FOR LINE SEARCHES
                       0  ADDITIONAL OPERATOR EVALUATIONS FOR LINE SEARCHES
                       0  WARNING MESSAGES DURING USER INPUT PROCESSING
                       0  WARNING MESSAGES DURING ANALYSIS
                       0  ANALYSIS WARNINGS ARE NUMERICAL PROBLEM MESSAGES
                       0  ANALYSIS WARNINGS ARE NEGATIVE EIGENVALUE MESSAGES
                       0  ERROR MESSAGES



     JOB TIME SUMMARY
       USER TIME (SEC)      =   15.500    
       SYSTEM TIME (SEC)    =   4.3000    
       TOTAL CPU TIME (SEC) =   19.800    
       WALLCLOCK TIME (SEC) =         21
