1

   Abaqus 2022                                  Date 04-Sep-2025   Time 17:36:50
   For use by UNIVERSITY OF BRITISH COLUMBIA under license from Dassault Systemes or its subsidiary.

 ABAQUS Buckling Analysis Set                                                    
 Forces                                                                          
 STEP    1     INCREMENT     1     STEP TIME    0.00    


                        S T E P       1     C A L C U L A T I O N   O F   E I G E N V A L U E S

                                            F O R   B U C K L I N G   P R E D I C T I O N



          Forces                                                                          

     THE SUBSPACE ITERATION METHOD IS USED FOR THIS ANALYSIS
     NUMBER OF EIGENVALUES                      1
     MAXIMUM NUMBER OF ITERATIONS                    400
     NUMBER OF VECTORS IN ITERATION                    2
                              ONLY INITIAL STRESS EFFECTS ARE INCLUDED IN THE
                              STIFFNESS MATRIX

     THIS IS A LINEAR PERTURBATION STEP.
     ALL LOADS ARE DEFINED AS CHANGE IN LOAD TO THE REFERENCE STATE

     EXTRAPOLATION WILL NOT BE USED

     CHARACTERISTIC ELEMENT LENGTH     2.032E-02

     DETAILS REGARDING ACTUAL SOLUTION WAVEFRONT REQUESTED

     DETAILED OUTPUT OF DIAGNOSTICS TO DATABASE REQUESTED

     PRINT OF INCREMENT NUMBER, TIME, ETC., TO THE MESSAGE FILE EVERY     1  INCREMENTS
 
	SYMMETRIC DIRECT SPARSE SOLVER RUNNING ON
 	1 HOST:        1 MPI RANK  x 1 THREAD
 	NUMBER OF EQUATIONS:     172692
 	NUMBER OF RHS:           1
 	NUMBER OF FLOPS:         2.561e+10

     CHECK POINT   START OF SOLVER    

     CHECK POINT  END OF SOLVER       

       ELAPSED USER TIME (SEC)      =   2.2000    
       ELAPSED SYSTEM TIME (SEC)    =   1.2000    
       ELAPSED TOTAL CPU TIME (SEC) =   3.4000    
       ELAPSED WALLCLOCK TIME (SEC) =          4
 
     ITERATION 1
      1       3.281221e+02     
      2       3.898193e+02     
 
     NUMBER OF EIGENVALUES CONVERGED UPTO THIS ITERATION = 0
 
     ITERATION 2
      1       1.612150e+01     
      2       1.892108e+01     
 
     NUMBER OF EIGENVALUES CONVERGED UPTO THIS ITERATION = 0
 
     ITERATION 3
      1       1.124252e+01     
      2       1.271392e+01     
 
     NUMBER OF EIGENVALUES CONVERGED UPTO THIS ITERATION = 0
 
     ITERATION 4
      1       1.032681e+01     
      2       1.131930e+01     
 
     NUMBER OF EIGENVALUES CONVERGED UPTO THIS ITERATION = 0
 
     ITERATION 5
      1       9.868693e+00     
      2       1.067164e+01     
 
     NUMBER OF EIGENVALUES CONVERGED UPTO THIS ITERATION = 0
 
     ITERATION 6
      1       9.580503e+00     
      2       1.029233e+01     
 
     NUMBER OF EIGENVALUES CONVERGED UPTO THIS ITERATION = 0
 
     ITERATION 7
      1       9.389727e+00     
      2       1.003362e+01     
 
     NUMBER OF EIGENVALUES CONVERGED UPTO THIS ITERATION = 0
 
     ITERATION 8
      1       9.261796e+00     
      2       9.838594e+00     
 
     NUMBER OF EIGENVALUES CONVERGED UPTO THIS ITERATION = 0
 
     ITERATION 9
      1       9.175405e+00     
      2       9.683061e+00     
 
     NUMBER OF EIGENVALUES CONVERGED UPTO THIS ITERATION = 0
 
     ITERATION 10
      1       9.116297e+00     
      2       9.555706e+00     
 
     NUMBER OF EIGENVALUES CONVERGED UPTO THIS ITERATION = 0
 
     ITERATION 11
      1       9.074916e+00     
      2       9.450461e+00     
 
     NUMBER OF EIGENVALUES CONVERGED UPTO THIS ITERATION = 0
 
     ITERATION 12
      1       9.044968e+00     
      2       9.363458e+00     
 
     NUMBER OF EIGENVALUES CONVERGED UPTO THIS ITERATION = 0
 
     ITERATION 13
      1       9.022366e+00     
      2       9.291821e+00     
 
     NUMBER OF EIGENVALUES CONVERGED UPTO THIS ITERATION = 0
 
     ITERATION 14
      1       9.004480e+00     
      2       9.233186e+00     
 
     NUMBER OF EIGENVALUES CONVERGED UPTO THIS ITERATION = 0
 
     ITERATION 15
      1       8.989638e+00     
      2       9.185509e+00     
 
     NUMBER OF EIGENVALUES CONVERGED UPTO THIS ITERATION = 0
 
     ITERATION 16
      1       8.976804e+00     
      2       9.146985e+00     
 
     NUMBER OF EIGENVALUES CONVERGED UPTO THIS ITERATION = 0
 
     ITERATION 17
      1       8.965366e+00     
      2       9.116005e+00     
 
     NUMBER OF EIGENVALUES CONVERGED UPTO THIS ITERATION = 0
 
     ITERATION 18
      1       8.955002e+00     
      2       9.091141e+00     
 
     NUMBER OF EIGENVALUES CONVERGED UPTO THIS ITERATION = 0
 
     ITERATION 19
      1       8.945567e+00     
      2       9.071142e+00     
 
     NUMBER OF EIGENVALUES CONVERGED UPTO THIS ITERATION = 0
 
     ITERATION 20
      1       8.937008e+00     
      2       9.054948e+00     
 
     NUMBER OF EIGENVALUES CONVERGED UPTO THIS ITERATION = 0
 
     ITERATION 21
      1       8.929303e+00     
      2       9.041686e+00     
 
     NUMBER OF EIGENVALUES CONVERGED UPTO THIS ITERATION = 0
 
     ITERATION 22
      1       8.922426e+00     
      2       9.030671e+00     
 
     NUMBER OF EIGENVALUES CONVERGED UPTO THIS ITERATION = 0
 
     ITERATION 23
      1       8.916335e+00     
      2       9.021374e+00     
 
     NUMBER OF EIGENVALUES CONVERGED UPTO THIS ITERATION = 0
 
     ITERATION 24
      1       8.910968e+00     
      2       9.013397e+00     
 
     NUMBER OF EIGENVALUES CONVERGED UPTO THIS ITERATION = 0
 
     ITERATION 25
      1       8.906255e+00     
      2       9.006443e+00     
 
     NUMBER OF EIGENVALUES CONVERGED UPTO THIS ITERATION = 0
 
     ITERATION 26
      1       8.902123e+00     
      2       9.000292e+00     
 
     NUMBER OF EIGENVALUES CONVERGED UPTO THIS ITERATION = 0
 
     ITERATION 27
      1       8.898498e+00     
      2       8.994780e+00     
 
     NUMBER OF EIGENVALUES CONVERGED UPTO THIS ITERATION = 0
 
     ITERATION 28
      1       8.895315e+00     
      2       8.989783e+00     
 
     NUMBER OF EIGENVALUES CONVERGED UPTO THIS ITERATION = 0
 
     ITERATION 29
      1       8.892512e+00     
      2       8.985207e+00     
 
     NUMBER OF EIGENVALUES CONVERGED UPTO THIS ITERATION = 0
 
     ITERATION 30
      1       8.890037e+00     
      2       8.980981e+00     
 
     NUMBER OF EIGENVALUES CONVERGED UPTO THIS ITERATION = 0
 
     ITERATION 31
      1       8.887844e+00     
      2       8.977048e+00     
 
     NUMBER OF EIGENVALUES CONVERGED UPTO THIS ITERATION = 0
 
     ITERATION 32
      1       8.885895e+00     
      2       8.973364e+00     
 
     NUMBER OF EIGENVALUES CONVERGED UPTO THIS ITERATION = 0
 
     ITERATION 33
      1       8.884155e+00     
      2       8.969895e+00     
 
     NUMBER OF EIGENVALUES CONVERGED UPTO THIS ITERATION = 0
 
     ITERATION 34
      1       8.882597e+00     
      2       8.966613e+00     
 
     NUMBER OF EIGENVALUES CONVERGED UPTO THIS ITERATION = 0
 
     ITERATION 35
      1       8.881197e+00     
      2       8.963495e+00     
 
     NUMBER OF EIGENVALUES CONVERGED UPTO THIS ITERATION = 0
 
     ITERATION 36
      1       8.879933e+00     
      2       8.960522e+00     
 
     NUMBER OF EIGENVALUES CONVERGED UPTO THIS ITERATION = 0
 
     ITERATION 37
      1       8.878790e+00     
      2       8.957679e+00     
 
     NUMBER OF EIGENVALUES CONVERGED UPTO THIS ITERATION = 0
 
     ITERATION 38
      1       8.877751e+00     
      2       8.954952e+00     
 
     NUMBER OF EIGENVALUES CONVERGED UPTO THIS ITERATION = 0
 
     ITERATION 39
      1       8.876805e+00     
      2       8.952331e+00     
 
     NUMBER OF EIGENVALUES CONVERGED UPTO THIS ITERATION = 0
 
     ITERATION 40
      1       8.875941e+00     
      2       8.949807e+00     
 
     NUMBER OF EIGENVALUES CONVERGED UPTO THIS ITERATION = 0
 
     ITERATION 41
      1       8.875150e+00     
      2       8.947371e+00     
 
     NUMBER OF EIGENVALUES CONVERGED UPTO THIS ITERATION = 0
 
     ITERATION 42
      1       8.874422e+00     
      2       8.945016e+00     
 
     NUMBER OF EIGENVALUES CONVERGED UPTO THIS ITERATION = 0
 
     ITERATION 43
      1       8.873753e+00     
      2       8.942737e+00     
 
     NUMBER OF EIGENVALUES CONVERGED UPTO THIS ITERATION = 0
 
     ITERATION 44
      1       8.873134e+00     
      2       8.940529e+00     
 
     NUMBER OF EIGENVALUES CONVERGED UPTO THIS ITERATION = 0
 
     ITERATION 45
      1       8.872562e+00     
      2       8.938386e+00     
 
     NUMBER OF EIGENVALUES CONVERGED UPTO THIS ITERATION = 0
 
     ITERATION 46
      1       8.872032e+00     
      2       8.936306e+00     
 
     NUMBER OF EIGENVALUES CONVERGED UPTO THIS ITERATION = 0
 
     ITERATION 47
      1       8.871539e+00     
      2       8.934284e+00     
 
     NUMBER OF EIGENVALUES CONVERGED UPTO THIS ITERATION = 0
 
     ITERATION 48
      1       8.871080e+00     
      2       8.932317e+00     
 
     NUMBER OF EIGENVALUES CONVERGED UPTO THIS ITERATION = 0
 
     ITERATION 49
      1       8.870652e+00     
      2       8.930403e+00     
 
     NUMBER OF EIGENVALUES CONVERGED UPTO THIS ITERATION = 0
 
     ITERATION 50
      1       8.870251e+00     
      2       8.928539e+00     
 
     NUMBER OF EIGENVALUES CONVERGED UPTO THIS ITERATION = 0
 
     ITERATION 51
      1       8.869877e+00     
      2       8.926723e+00     
 
     NUMBER OF EIGENVALUES CONVERGED UPTO THIS ITERATION = 0
 
     ITERATION 52
      1       8.869525e+00     
      2       8.924953e+00     
 
     NUMBER OF EIGENVALUES CONVERGED UPTO THIS ITERATION = 0
 
     ITERATION 53
      1       8.869195e+00     
      2       8.923228e+00     
 
     NUMBER OF EIGENVALUES CONVERGED UPTO THIS ITERATION = 0
 
     ITERATION 54
      1       8.868884e+00     
      2       8.921546e+00     
 
     NUMBER OF EIGENVALUES CONVERGED UPTO THIS ITERATION = 0
 
     ITERATION 55
      1       8.868591e+00     
      2       8.919904e+00     
 
     NUMBER OF EIGENVALUES CONVERGED UPTO THIS ITERATION = 0
 
     ITERATION 56
      1       8.868315e+00     
      2       8.918304e+00     
 
     NUMBER OF EIGENVALUES CONVERGED UPTO THIS ITERATION = 0
 
     ITERATION 57
      1       8.868054e+00     
      2       8.916742e+00     
 
     NUMBER OF EIGENVALUES CONVERGED UPTO THIS ITERATION = 0
 
     ITERATION 58
      1       8.867806e+00     
      2       8.915218e+00     
 
     NUMBER OF EIGENVALUES CONVERGED UPTO THIS ITERATION = 0
 
     ITERATION 59
      1       8.867572e+00     
      2       8.913730e+00     
 
     NUMBER OF EIGENVALUES CONVERGED UPTO THIS ITERATION = 0
 
     ITERATION 60
      1       8.867351e+00     
      2       8.912279e+00     
 
     NUMBER OF EIGENVALUES CONVERGED UPTO THIS ITERATION = 0
 
     ITERATION 61
      1       8.867140e+00     
      2       8.910864e+00     
 
     NUMBER OF EIGENVALUES CONVERGED UPTO THIS ITERATION = 0
 
     ITERATION 62
      1       8.866940e+00     
      2       8.909482e+00     
 
     NUMBER OF EIGENVALUES CONVERGED UPTO THIS ITERATION = 0
 
     ITERATION 63
      1       8.866749e+00     
      2       8.908135e+00     
 
     NUMBER OF EIGENVALUES CONVERGED UPTO THIS ITERATION = 0
 
     ITERATION 64
      1       8.866568e+00     
      2       8.906821e+00     
 
     NUMBER OF EIGENVALUES CONVERGED UPTO THIS ITERATION = 0
 
     ITERATION 65
      1       8.866395e+00     
      2       8.905539e+00     
 
     NUMBER OF EIGENVALUES CONVERGED UPTO THIS ITERATION = 0
 
     ITERATION 66
      1       8.866231e+00     
      2       8.904289e+00     
 
     NUMBER OF EIGENVALUES CONVERGED UPTO THIS ITERATION = 0
 
     ITERATION 67
      1       8.866073e+00     
      2       8.903070e+00     
 
     NUMBER OF EIGENVALUES CONVERGED UPTO THIS ITERATION = 0
 
     ITERATION 68
      1       8.865923e+00     
      2       8.901881e+00     
 
     NUMBER OF EIGENVALUES CONVERGED UPTO THIS ITERATION = 0
 
     ITERATION 69
      1       8.865780e+00     
      2       8.900723e+00     
 
     NUMBER OF EIGENVALUES CONVERGED UPTO THIS ITERATION = 0
 
     ITERATION 70
      1       8.865643e+00     
      2       8.899595e+00     
 
     NUMBER OF EIGENVALUES CONVERGED UPTO THIS ITERATION = 0
 
     ITERATION 71
      1       8.865511e+00     
      2       8.898496e+00     
 
     NUMBER OF EIGENVALUES CONVERGED UPTO THIS ITERATION = 0
 
     ITERATION 72
      1       8.865386e+00     
      2       8.897425e+00     
 
     NUMBER OF EIGENVALUES CONVERGED UPTO THIS ITERATION = 0
 
     ITERATION 73
      1       8.865265e+00     
      2       8.896382e+00     
 
     NUMBER OF EIGENVALUES CONVERGED UPTO THIS ITERATION = 0
 
     ITERATION 74
      1       8.865150e+00     
      2       8.895367e+00     
 
     NUMBER OF EIGENVALUES CONVERGED UPTO THIS ITERATION = 0
 
     ITERATION 75
      1       8.865040e+00     
      2       8.894379e+00     
 
     NUMBER OF EIGENVALUES CONVERGED UPTO THIS ITERATION = 0
 
     ITERATION 76
      1       8.864933e+00     
      2       8.893417e+00     
 
     NUMBER OF EIGENVALUES CONVERGED UPTO THIS ITERATION = 0
 
     ITERATION 77
      1       8.864832e+00     
      2       8.892482e+00     
 
     NUMBER OF EIGENVALUES CONVERGED UPTO THIS ITERATION = 0
 
     ITERATION 78
      1       8.864734e+00     
      2       8.891572e+00     
 
     NUMBER OF EIGENVALUES CONVERGED UPTO THIS ITERATION = 0
 
     ITERATION 79
      1       8.864640e+00     
      2       8.890687e+00     
 
     NUMBER OF EIGENVALUES CONVERGED UPTO THIS ITERATION = 0
 
     ITERATION 80
      1       8.864550e+00     
      2       8.889827e+00     
 
     NUMBER OF EIGENVALUES CONVERGED UPTO THIS ITERATION = 0
 
     ITERATION 81
      1       8.864463e+00     
      2       8.888991e+00     
 
     NUMBER OF EIGENVALUES CONVERGED UPTO THIS ITERATION = 0
 
     ITERATION 82
      1       8.864380e+00     
      2       8.888179e+00     
 
     NUMBER OF EIGENVALUES CONVERGED UPTO THIS ITERATION = 0
 
     ITERATION 83
      1       8.864300e+00     
      2       8.887390e+00     
 
     NUMBER OF EIGENVALUES CONVERGED UPTO THIS ITERATION = 0
 
     ITERATION 84
      1       8.864223e+00     
      2       8.886624e+00     
 
     NUMBER OF EIGENVALUES CONVERGED UPTO THIS ITERATION = 0
 
     ITERATION 85
      1       8.864149e+00     
      2       8.885880e+00     
 
     NUMBER OF EIGENVALUES CONVERGED UPTO THIS ITERATION = 0
 
     ITERATION 86
      1       8.864077e+00     
      2       8.885157e+00     
 
     NUMBER OF EIGENVALUES CONVERGED UPTO THIS ITERATION = 0
 
     ITERATION 87
      1       8.864008e+00     
      2       8.884457e+00     
 
     NUMBER OF EIGENVALUES CONVERGED UPTO THIS ITERATION = 0
 
     ITERATION 88
      1       8.863942e+00     
      2       8.883776e+00     
 
     NUMBER OF EIGENVALUES CONVERGED UPTO THIS ITERATION = 0
 
     ITERATION 89
      1       8.863878e+00     
      2       8.883117e+00     
 
     NUMBER OF EIGENVALUES CONVERGED UPTO THIS ITERATION = 0
 
     ITERATION 90
      1       8.863817e+00     
      2       8.882477e+00     
 
     NUMBER OF EIGENVALUES CONVERGED UPTO THIS ITERATION = 0
 
     ITERATION 91
      1       8.863757e+00     
      2       8.881857e+00     
 
     NUMBER OF EIGENVALUES CONVERGED UPTO THIS ITERATION = 0
 
     ITERATION 92
      1       8.863700e+00     
      2       8.881255e+00     
 
     NUMBER OF EIGENVALUES CONVERGED UPTO THIS ITERATION = 0
 
     ITERATION 93
      1       8.863645e+00     
      2       8.880673e+00     
 
     NUMBER OF EIGENVALUES CONVERGED UPTO THIS ITERATION = 0
 
     ITERATION 94
      1       8.863591e+00     
      2       8.880108e+00     
 
     NUMBER OF EIGENVALUES CONVERGED UPTO THIS ITERATION = 0
 
     ITERATION 95
      1       8.863540e+00     
      2       8.879561e+00     
 
     NUMBER OF EIGENVALUES CONVERGED UPTO THIS ITERATION = 0
 
     ITERATION 96
      1       8.863490e+00     
      2       8.879031e+00     
 
     NUMBER OF EIGENVALUES CONVERGED UPTO THIS ITERATION = 0
 
     ITERATION 97
      1       8.863442e+00     
      2       8.878518e+00     
 
     NUMBER OF EIGENVALUES CONVERGED UPTO THIS ITERATION = 0
 
     ITERATION 98
      1       8.863395e+00     
      2       8.878021e+00     
 
     NUMBER OF EIGENVALUES CONVERGED UPTO THIS ITERATION = 0
 
     ITERATION 99
      1       8.863351e+00     
      2       8.877540e+00     
 
     NUMBER OF EIGENVALUES CONVERGED UPTO THIS ITERATION = 0
 
     ITERATION 100
      1       8.863307e+00     
      2       8.877075e+00     
 
     NUMBER OF EIGENVALUES CONVERGED UPTO THIS ITERATION = 0
 
     ITERATION 101
      1       8.863265e+00     
      2       8.876625e+00     
 
     NUMBER OF EIGENVALUES CONVERGED UPTO THIS ITERATION = 0
 
     ITERATION 102
      1       8.863224e+00     
      2       8.876189e+00     
 
     NUMBER OF EIGENVALUES CONVERGED UPTO THIS ITERATION = 0
 
     ITERATION 103
      1       8.863185e+00     
      2       8.875768e+00     
 
     NUMBER OF EIGENVALUES CONVERGED UPTO THIS ITERATION = 0
 
     ITERATION 104
      1       8.863146e+00     
      2       8.875360e+00     
 
     NUMBER OF EIGENVALUES CONVERGED UPTO THIS ITERATION = 0
 
     ITERATION 105
      1       8.863109e+00     
      2       8.874966e+00     
 
     NUMBER OF EIGENVALUES CONVERGED UPTO THIS ITERATION = 0
 
     ITERATION 106
      1       8.863073e+00     
      2       8.874586e+00     
 
     NUMBER OF EIGENVALUES CONVERGED UPTO THIS ITERATION = 0
 
     ITERATION 107
      1       8.863038e+00     
      2       8.874218e+00     
 
     NUMBER OF EIGENVALUES CONVERGED UPTO THIS ITERATION = 0
 
     ITERATION 108
      1       8.863004e+00     
      2       8.873862e+00     
 
     NUMBER OF EIGENVALUES CONVERGED UPTO THIS ITERATION = 0
 
     ITERATION 109
      1       8.862971e+00     
      2       8.873518e+00     
 
     NUMBER OF EIGENVALUES CONVERGED UPTO THIS ITERATION = 0
 
     ITERATION 110
      1       8.862939e+00     
      2       8.873186e+00     
 
     NUMBER OF EIGENVALUES CONVERGED UPTO THIS ITERATION = 0
 
     ITERATION 111
      1       8.862908e+00     
      2       8.872866e+00     
 
     NUMBER OF EIGENVALUES CONVERGED UPTO THIS ITERATION = 0
 
     ITERATION 112
      1       8.862878e+00     
      2       8.872556e+00     
 
     NUMBER OF EIGENVALUES CONVERGED UPTO THIS ITERATION = 0
 
     ITERATION 113
      1       8.862848e+00     
      2       8.872257e+00     
 
     NUMBER OF EIGENVALUES CONVERGED UPTO THIS ITERATION = 0
 
     ITERATION 114
      1       8.862820e+00     
      2       8.871968e+00     
 
     NUMBER OF EIGENVALUES CONVERGED UPTO THIS ITERATION = 0
 
     ITERATION 115
      1       8.862792e+00     
      2       8.871690e+00     
 
     NUMBER OF EIGENVALUES CONVERGED UPTO THIS ITERATION = 0
 
     ITERATION 116
      1       8.862764e+00     
      2       8.871421e+00     
 
     NUMBER OF EIGENVALUES CONVERGED UPTO THIS ITERATION = 0
 
     ITERATION 117
      1       8.862738e+00     
      2       8.871161e+00     
 
     NUMBER OF EIGENVALUES CONVERGED UPTO THIS ITERATION = 0
 
     ITERATION 118
      1       8.862712e+00     
      2       8.870911e+00     
 
     NUMBER OF EIGENVALUES CONVERGED UPTO THIS ITERATION = 0
 
     ITERATION 119
      1       8.862687e+00     
      2       8.870670e+00     
 
     NUMBER OF EIGENVALUES CONVERGED UPTO THIS ITERATION = 0
 
     ITERATION 120
      1       8.862662e+00     
      2       8.870437e+00     
 
     NUMBER OF EIGENVALUES CONVERGED UPTO THIS ITERATION = 0
 
     ITERATION 121
      1       8.862638e+00     
      2       8.870212e+00     
 
     NUMBER OF EIGENVALUES CONVERGED UPTO THIS ITERATION = 0
 
     ITERATION 122
      1       8.862614e+00     
      2       8.869995e+00     
 
     NUMBER OF EIGENVALUES CONVERGED UPTO THIS ITERATION = 0
 
     ITERATION 123
      1       8.862591e+00     
      2       8.869787e+00     
 
     NUMBER OF EIGENVALUES CONVERGED UPTO THIS ITERATION = 0
 
     ITERATION 124
      1       8.862568e+00     
      2       8.869585e+00     
 
     NUMBER OF EIGENVALUES CONVERGED UPTO THIS ITERATION = 0
 
     ITERATION 125
      1       8.862546e+00     
      2       8.869391e+00     
 
     NUMBER OF EIGENVALUES CONVERGED UPTO THIS ITERATION = 0
 
     ITERATION 126
      1       8.862524e+00     
      2       8.869204e+00     
 
     NUMBER OF EIGENVALUES CONVERGED UPTO THIS ITERATION = 0
 
     ITERATION 127
      1       8.862503e+00     
      2       8.869024e+00     
 
     NUMBER OF EIGENVALUES CONVERGED UPTO THIS ITERATION = 0
 
     ITERATION 128
      1       8.862482e+00     
      2       8.868851e+00     
 
     NUMBER OF EIGENVALUES CONVERGED UPTO THIS ITERATION = 0
 
     ITERATION 129
      1       8.862462e+00     
      2       8.868683e+00     
 
     NUMBER OF EIGENVALUES CONVERGED UPTO THIS ITERATION = 0
 
     ITERATION 130
      1       8.862442e+00     
      2       8.868522e+00     
 
     NUMBER OF EIGENVALUES CONVERGED UPTO THIS ITERATION = 0
 
     ITERATION 131
      1       8.862422e+00     
      2       8.868367e+00     
 
     NUMBER OF EIGENVALUES CONVERGED UPTO THIS ITERATION = 0
 
     ITERATION 132
      1       8.862403e+00     
      2       8.868218e+00     
 
     NUMBER OF EIGENVALUES CONVERGED UPTO THIS ITERATION = 0
 
     ITERATION 133
      1       8.862384e+00     
      2       8.868074e+00     
 
     NUMBER OF EIGENVALUES CONVERGED UPTO THIS ITERATION = 0
 
     ITERATION 134
      1       8.862365e+00     
      2       8.867936e+00     
 
     NUMBER OF EIGENVALUES CONVERGED UPTO THIS ITERATION = 0
 
     ITERATION 135
      1       8.862347e+00     
      2       8.867803e+00     
 
     NUMBER OF EIGENVALUES CONVERGED UPTO THIS ITERATION = 0
 
     ITERATION 136
      1       8.862329e+00     
      2       8.867674e+00     
 
     NUMBER OF EIGENVALUES CONVERGED UPTO THIS ITERATION = 0
 
     ITERATION 137
      1       8.862311e+00     
      2       8.867551e+00     
 
     NUMBER OF EIGENVALUES CONVERGED UPTO THIS ITERATION = 0
 
     ITERATION 138
      1       8.862294e+00     
      2       8.867432e+00     
 
     NUMBER OF EIGENVALUES CONVERGED UPTO THIS ITERATION = 0
 
     ITERATION 139
      1       8.862277e+00     
      2       8.867318e+00     
 
     NUMBER OF EIGENVALUES CONVERGED UPTO THIS ITERATION = 0
 
     ITERATION 140
      1       8.862260e+00     
      2       8.867208e+00     
 
     NUMBER OF EIGENVALUES CONVERGED UPTO THIS ITERATION = 0
 
     ITERATION 141
      1       8.862244e+00     
      2       8.867102e+00     
 
     NUMBER OF EIGENVALUES CONVERGED UPTO THIS ITERATION = 0
 
     ITERATION 142
      1       8.862228e+00     
      2       8.867000e+00     
 
     NUMBER OF EIGENVALUES CONVERGED UPTO THIS ITERATION = 0
 
     ITERATION 143
      1       8.862212e+00     
      2       8.866902e+00     
 
     NUMBER OF EIGENVALUES CONVERGED UPTO THIS ITERATION = 0
 
     ITERATION 144
      1       8.862196e+00     
      2       8.866808e+00     
 
     NUMBER OF EIGENVALUES CONVERGED UPTO THIS ITERATION = 0
 
     ITERATION 145
      1       8.862181e+00     
      2       8.866718e+00     
 
     NUMBER OF EIGENVALUES CONVERGED UPTO THIS ITERATION = 0
 
     ITERATION 146
      1       8.862166e+00     
      2       8.866631e+00     
 
     NUMBER OF EIGENVALUES CONVERGED UPTO THIS ITERATION = 0
 
     ITERATION 147
      1       8.862152e+00     
      2       8.866547e+00     
 
     NUMBER OF EIGENVALUES CONVERGED UPTO THIS ITERATION = 0
 
     ITERATION 148
      1       8.862137e+00     
      2       8.866467e+00     
 
     NUMBER OF EIGENVALUES CONVERGED UPTO THIS ITERATION = 0
 
     ITERATION 149
      1       8.862123e+00     
      2       8.866389e+00     
 
     NUMBER OF EIGENVALUES CONVERGED UPTO THIS ITERATION = 0
 
     ITERATION 150
      1       8.862109e+00     
      2       8.866315e+00     
 
     NUMBER OF EIGENVALUES CONVERGED UPTO THIS ITERATION = 0
 
     ITERATION 151
      1       8.862095e+00     
      2       8.866243e+00     
 
     NUMBER OF EIGENVALUES CONVERGED UPTO THIS ITERATION = 0
 
     ITERATION 152
      1       8.862082e+00     
      2       8.866174e+00     
 
     NUMBER OF EIGENVALUES CONVERGED UPTO THIS ITERATION = 0
 
     ITERATION 153
      1       8.862069e+00     
      2       8.866108e+00     
 
     NUMBER OF EIGENVALUES CONVERGED UPTO THIS ITERATION = 0
 
     ITERATION 154
      1       8.862056e+00     
      2       8.866045e+00     
 
     NUMBER OF EIGENVALUES CONVERGED UPTO THIS ITERATION = 0
 
     ITERATION 155
      1       8.862044e+00     
      2       8.865984e+00     
 
     NUMBER OF EIGENVALUES CONVERGED UPTO THIS ITERATION = 0
 
     ITERATION 156
      1       8.862031e+00     
      2       8.865925e+00     
 
     NUMBER OF EIGENVALUES CONVERGED UPTO THIS ITERATION = 0
 
     ITERATION 157
      1       8.862019e+00     
      2       8.865868e+00     
 
     NUMBER OF EIGENVALUES CONVERGED UPTO THIS ITERATION = 0
 
     ITERATION 158
      1       8.862008e+00     
      2       8.865814e+00     
 
     NUMBER OF EIGENVALUES CONVERGED UPTO THIS ITERATION = 0
 
     ITERATION 159
      1       8.861996e+00     
      2       8.865762e+00     
 
     NUMBER OF EIGENVALUES CONVERGED UPTO THIS ITERATION = 0
 
     ITERATION 160
      1       8.861985e+00     
      2       8.865712e+00     
 
     NUMBER OF EIGENVALUES CONVERGED UPTO THIS ITERATION = 0
 
     ITERATION 161
      1       8.861974e+00     
      2       8.865663e+00     
 
     NUMBER OF EIGENVALUES CONVERGED UPTO THIS ITERATION = 0
 
     ITERATION 162
      1       8.861963e+00     
      2       8.865617e+00     
 
     NUMBER OF EIGENVALUES CONVERGED UPTO THIS ITERATION = 0
 
     ITERATION 163
      1       8.861952e+00     
      2       8.865572e+00     
 
     NUMBER OF EIGENVALUES CONVERGED UPTO THIS ITERATION = 0
 
     ITERATION 164
      1       8.861942e+00     
      2       8.865530e+00     
 
     NUMBER OF EIGENVALUES CONVERGED UPTO THIS ITERATION = 0
 
     ITERATION 165
      1       8.861932e+00     
      2       8.865488e+00     
 
     NUMBER OF EIGENVALUES CONVERGED UPTO THIS ITERATION = 0
 
     ITERATION 166
      1       8.861922e+00     
      2       8.865449e+00     
 
     NUMBER OF EIGENVALUES CONVERGED UPTO THIS ITERATION = 0
 
     ITERATION 167
      1       8.861913e+00     
      2       8.865411e+00     
 
     NUMBER OF EIGENVALUES CONVERGED UPTO THIS ITERATION = 0
 
     ITERATION 168
      1       8.861903e+00     
      2       8.865374e+00     
 
     NUMBER OF EIGENVALUES CONVERGED UPTO THIS ITERATION = 0
 
     ITERATION 169
      1       8.861894e+00     
      2       8.865339e+00     
 
     NUMBER OF EIGENVALUES CONVERGED UPTO THIS ITERATION = 0
 
     ITERATION 170
      1       8.861885e+00     
      2       8.865305e+00     
 
     NUMBER OF EIGENVALUES CONVERGED UPTO THIS ITERATION = 0
 
     ITERATION 171
      1       8.861877e+00     
      2       8.865272e+00     
 
     NUMBER OF EIGENVALUES CONVERGED UPTO THIS ITERATION = 1


          THE ANALYSIS HAS BEEN COMPLETED



     ANALYSIS SUMMARY:
     TOTAL OF          1  INCREMENTS
                       0  CUTBACKS IN AUTOMATIC INCREMENTATION
                       1  ITERATIONS INCLUDING CONTACT ITERATIONS IF PRESENT
                       1  PASSES THROUGH THE EQUATION SOLVER OF WHICH 
                       1  INVOLVE MATRIX DECOMPOSITION, INCLUDING
                       0  DECOMPOSITION(S) OF THE MASS MATRIX
                       1  REORDERING OF EQUATIONS TO MINIMIZE WAVEFRONT
                       0  ADDITIONAL RESIDUAL EVALUATIONS FOR LINE SEARCHES
                       0  ADDITIONAL OPERATOR EVALUATIONS FOR LINE SEARCHES
                       1  WARNING MESSAGES DURING USER INPUT PROCESSING
                       0  WARNING MESSAGES DURING ANALYSIS
                       0  ANALYSIS WARNINGS ARE NUMERICAL PROBLEM MESSAGES
                       0  ANALYSIS WARNINGS ARE NEGATIVE EIGENVALUE MESSAGES
                       0  ERROR MESSAGES



     JOB TIME SUMMARY
       USER TIME (SEC)      =   118.70    
       SYSTEM TIME (SEC)    =   26.000    
       TOTAL CPU TIME (SEC) =   144.70    
       WALLCLOCK TIME (SEC) =        148
