1

   Abaqus 2020                                  Date 08-Sep-2025   Time 16:57:31
   For use by UNIVERSITY OF BRITISH COLUMBIA under license from Dassault Systemes or its subsidiary.

                                                                                 
                                                                                 
 STEP    1     INCREMENT     1     STEP TIME    0.00    


                        S T E P       1     C A L C U L A T I O N   O F   E I G E N V A L U E S

                                            F O R   B U C K L I N G   P R E D I C T I O N



                                                                                          

     THE SUBSPACE ITERATION METHOD IS USED FOR THIS ANALYSIS
     NUMBER OF EIGENVALUES                      5
     MAXIMUM NUMBER OF ITERATIONS                     30
     NUMBER OF VECTORS IN ITERATION                   10
     THE BUCKLING MODE CONSTRAINTS 
      ARE DEFINED AS LOAD CASE 2
                              ONLY INITIAL STRESS EFFECTS ARE INCLUDED IN THE
                              STIFFNESS MATRIX

     THIS IS A LINEAR PERTURBATION STEP.
     ALL LOADS ARE DEFINED AS CHANGE IN LOAD TO THE REFERENCE STATE

     EXTRAPOLATION WILL NOT BE USED

     CHARACTERISTIC ELEMENT LENGTH     2.000E-02

     DETAILS REGARDING ACTUAL SOLUTION WAVEFRONT REQUESTED

     DETAILED OUTPUT OF DIAGNOSTICS TO DATABASE REQUESTED

     PRINT OF INCREMENT NUMBER, TIME, ETC., TO THE MESSAGE FILE EVERY     1  INCREMENTS

     ELEMENT OPERATIONS WILL NOT BE CARRIED OUT IN PARALLEL
 
     GPU SOLVER ACCELERATION ENABLED


  NUMBER OF EQUATIONS =    136656     NUMBER OF RHS =    1
  NUMBER OF FLOATING PT. OPERATIONS =  1.44E+10

  USING THE DIRECT SOLVER WITH   4 PROCESSORS

     CHECK POINT   START OF SOLVER    

     CHECK POINT  END OF SOLVER       

       ELAPSED USER TIME (SEC)      =  0.10000    
       ELAPSED SYSTEM TIME (SEC)    =   0.0000    
       ELAPSED TOTAL CPU TIME (SEC) =  0.10000    
       ELAPSED WALLCLOCK TIME (SEC) =          0
 
     ITERATION 1
      1       8.798978e+00     
      2       2.169823e+01     
      3       3.069844e+01     
      4       5.407560e+01     
      5       1.065887e+02     
      6       1.460042e+02     
      7       1.672008e+02     
      8       1.963175e+02     
      9       2.100380e+02     
      10      2.352739e+02     
 
     NUMBER OF EIGENVALUES CONVERGED UPTO THIS ITERATION = 0
 
     ITERATION 2
      1       2.550633e-01     
      2       4.190540e-01     
      3       8.282189e-01     
      4       1.140692e+00     
      5       1.472592e+00     
      6       1.922215e+00     
      7       2.501298e+00     
      8       3.163041e+00     
      9       3.966974e+00     
      10      4.499933e+00     
 
     NUMBER OF EIGENVALUES CONVERGED UPTO THIS ITERATION = 0
 
     ITERATION 3
      1       2.525361e-01     
      2       3.960273e-01     
      3       7.062365e-01     
      4       1.028709e+00     
      5       1.240790e+00     
      6       1.363395e+00     
      7       1.776924e+00     
      8       2.124025e+00     
      9       2.199519e+00     
      10      2.701652e+00     
 
     NUMBER OF EIGENVALUES CONVERGED UPTO THIS ITERATION = 0
 
     ITERATION 4
      1       2.525205e-01     
      2       3.949235e-01     
      3       7.028037e-01     
      4       1.014493e+00     
      5       1.177246e+00     
      6       1.227365e+00     
      7       1.651628e+00     
      8       1.709807e+00     
      9       1.847134e+00     
      10      2.593280e+00     
 
     NUMBER OF EIGENVALUES CONVERGED UPTO THIS ITERATION = 0
 
     ITERATION 5
      1       2.525204e-01     
      2       3.948881e-01     
      3       7.025930e-01     
      4       1.011171e+00     
      5       1.151846e+00     
      6       1.195321e+00     
      7       1.611800e+00     
      8       1.620222e+00     
      9       1.758200e+00     
      10      2.545940e+00     
 
     NUMBER OF EIGENVALUES CONVERGED UPTO THIS ITERATION = 1
 
     ITERATION 6
      1       2.525204e-01     
      2       3.948872e-01     
      3       7.025770e-01     
      4       1.010349e+00     
      5       1.144912e+00     
      6       1.188366e+00     
      7       1.593034e+00     
      8       1.597155e+00     
      9       1.730809e+00     
      10      2.517530e+00     
 
     NUMBER OF EIGENVALUES CONVERGED UPTO THIS ITERATION = 1
 
     ITERATION 7
      1       2.525204e-01     
      2       3.948871e-01     
      3       7.025756e-01     
      4       1.010166e+00     
      5       1.143298e+00     
      6       1.186558e+00     
      7       1.585212e+00     
      8       1.588537e+00     
      9       1.720512e+00     
      10      2.496816e+00     
 
     NUMBER OF EIGENVALUES CONVERGED UPTO THIS ITERATION = 2
 
     ITERATION 8
      1       2.525204e-01     
      2       3.948871e-01     
      3       7.025755e-01     
      4       1.010126e+00     
      5       1.142916e+00     
      6       1.186051e+00     
      7       1.582135e+00     
      8       1.584359e+00     
      9       1.716051e+00     
      10      2.479225e+00     
 
     NUMBER OF EIGENVALUES CONVERGED UPTO THIS ITERATION = 3
 
     ITERATION 9
      1       2.525204e-01     
      2       3.948871e-01     
      3       7.025755e-01     
      4       1.010117e+00     
      5       1.142821e+00     
      6       1.185905e+00     
      7       1.580862e+00     
      8       1.582209e+00     
      9       1.713940e+00     
      10      2.462437e+00     
 
     NUMBER OF EIGENVALUES CONVERGED UPTO THIS ITERATION = 3
 
     ITERATION 10
      1       2.525204e-01     
      2       3.948871e-01     
      3       7.025755e-01     
      4       1.010115e+00     
      5       1.142797e+00     
      6       1.185862e+00     
      7       1.580319e+00     
      8       1.581075e+00     
      9       1.712885e+00     
      10      2.445098e+00     
 
     NUMBER OF EIGENVALUES CONVERGED UPTO THIS ITERATION = 3
 
     ITERATION 11
      1       2.525204e-01     
      2       3.948871e-01     
      3       7.025755e-01     
      4       1.010115e+00     
      5       1.142791e+00     
      6       1.185850e+00     
      7       1.580083e+00     
      8       1.580470e+00     
      9       1.712339e+00     
      10      2.426354e+00     
 
     NUMBER OF EIGENVALUES CONVERGED UPTO THIS ITERATION = 4
 
     ITERATION 12
      1       2.525204e-01     
      2       3.948871e-01     
      3       7.025755e-01     
      4       1.010115e+00     
      5       1.142789e+00     
      6       1.185846e+00     
      7       1.579980e+00     
      8       1.580147e+00     
      9       1.712048e+00     
      10      2.405699e+00     
 
     NUMBER OF EIGENVALUES CONVERGED UPTO THIS ITERATION = 4
 
     ITERATION 13
      1       2.525204e-01     
      2       3.948871e-01     
      3       7.025755e-01     
      4       1.010115e+00     
      5       1.142789e+00     
      6       1.185845e+00     
      7       1.579934e+00     
      8       1.579975e+00     
      9       1.711889e+00     
      10      2.382946e+00     
 
     NUMBER OF EIGENVALUES CONVERGED UPTO THIS ITERATION = 5


          THE ANALYSIS HAS BEEN COMPLETED



     ANALYSIS SUMMARY:
     TOTAL OF          1  INCREMENTS
                       0  CUTBACKS IN AUTOMATIC INCREMENTATION
                       1  ITERATIONS INCLUDING CONTACT ITERATIONS IF PRESENT
                       1  PASSES THROUGH THE EQUATION SOLVER OF WHICH 
                       1  INVOLVE MATRIX DECOMPOSITION, INCLUDING
                       0  DECOMPOSITION(S) OF THE MASS MATRIX
                       1  REORDERING OF EQUATIONS TO MINIMIZE WAVEFRONT
                       0  ADDITIONAL RESIDUAL EVALUATIONS FOR LINE SEARCHES
                       0  ADDITIONAL OPERATOR EVALUATIONS FOR LINE SEARCHES
                       1  WARNING MESSAGES DURING USER INPUT PROCESSING
                       0  WARNING MESSAGES DURING ANALYSIS
                       0  ANALYSIS WARNINGS ARE NUMERICAL PROBLEM MESSAGES
                       0  ANALYSIS WARNINGS ARE NEGATIVE EIGENVALUE MESSAGES
                       0  ERROR MESSAGES



     JOB TIME SUMMARY
       USER TIME (SEC)      =   9.6000    
       SYSTEM TIME (SEC)    =   1.3000    
       TOTAL CPU TIME (SEC) =   10.900    
       WALLCLOCK TIME (SEC) =         13
