1

   Abaqus 2022                                  Date 07-Sep-2025   Time 20:46:24
   For use by UNIVERSITY OF BRITISH COLUMBIA under license from Dassault Systemes or its subsidiary.

                                                                                 
                                                                                 
 STEP    1     INCREMENT     1     STEP TIME    0.00    


                        S T E P       1     S T A T I C   A N A L Y S I S


                                                                                          

     AUTOMATIC LOAD CONTROL WITH -
          A SUGGESTED INITIAL INCREMENT IN ARC LENGTH            1.00    
          AND A TOTAL ARC LENGTH SCALE FACTOR OF                 1.00    
          THE MINIMUM ARC LENGTH INCREMENT ALLOWED IS           1.000E-05
          THE MAXIMUM ARC LENGTH INCREMENT ALLOWED IS           1.000E+36

     LINEAR EQUATION SOLVER TYPE         DIRECT SPARSE

     MODIFIED RIKS METHOD IS USED - AMPLITUDE REFERENCES ARE IGNORED

 CONVERGENCE TOLERANCE PARAMETERS FOR FORCE    
     CRITERION FOR RESIDUAL FORCE     FOR A NONLINEAR PROBLEM          5.000E-03
     CRITERION FOR DISP.    CORRECTION IN A NONLINEAR PROBLEM          1.000E-02
     INITIAL VALUE OF TIME AVERAGE FORCE                               1.000E-02
     AVERAGE FORCE     IS TIME AVERAGE FORCE    
     ALTERNATE CRIT. FOR RESIDUAL FORCE     FOR A NONLINEAR PROBLEM    2.000E-02
     CRITERION FOR ZERO FORCE     RELATIVE TO TIME AVRG. FORCE         1.000E-05
     CRITERION FOR RESIDUAL FORCE     WHEN THERE IS ZERO FLUX          1.000E-05
     CRITERION FOR DISP.    CORRECTION WHEN THERE IS ZERO FLUX         1.000E-03
     CRITERION FOR RESIDUAL FORCE     FOR A LINEAR INCREMENT           1.000E-08
     FIELD CONVERSION RATIO                                             1.00    
     CRITERION FOR ZERO FORCE     REL. TO TIME AVRG. MAX. FORCE        1.000E-05
     CRITERION FOR ZERO DISP.    RELATIVE TO CHARACTERISTIC LENGTH     1.000E-08

 CONVERGENCE TOLERANCE PARAMETERS FOR MOMENT   
     CRITERION FOR RESIDUAL MOMENT    FOR A NONLINEAR PROBLEM          5.000E-03
     CRITERION FOR ROTATION CORRECTION IN A NONLINEAR PROBLEM          1.000E-02
     INITIAL VALUE OF TIME AVERAGE MOMENT                              1.000E-02
     AVERAGE MOMENT    IS TIME AVERAGE MOMENT   
     ALTERNATE CRIT. FOR RESIDUAL MOMENT    FOR A NONLINEAR PROBLEM    2.000E-02
     CRITERION FOR ZERO MOMENT    RELATIVE TO TIME AVRG. MOMENT        1.000E-05
     CRITERION FOR RESIDUAL MOMENT    WHEN THERE IS ZERO FLUX          1.000E-05
     CRITERION FOR ROTATION CORRECTION WHEN THERE IS ZERO FLUX         1.000E-03
     CRITERION FOR RESIDUAL MOMENT    FOR A LINEAR INCREMENT           1.000E-08
     FIELD CONVERSION RATIO                                             1.00    
     CRITERION FOR ZERO MOMENT    REL. TO TIME AVRG. MAX. MOMENT       1.000E-05

     VOLUMETRIC STRAIN COMPATIBILITY TOLERANCE FOR HYBRID SOLIDS       1.000E-05
     AXIAL STRAIN COMPATIBILITY TOLERANCE FOR HYBRID BEAMS             1.000E-05
     TRANS. SHEAR STRAIN COMPATIBILITY TOLERANCE FOR HYBRID BEAMS      1.000E-05
     SOFT CONTACT CONSTRAINT COMPATIBILITY TOLERANCE FOR P>P0          5.000E-03
     SOFT CONTACT CONSTRAINT COMPATIBILITY TOLERANCE FOR P=0.0         0.100    
     CONTACT FORCE ERROR TOLERANCE FOR CONVERT SDI=YES                 1.00    
     DISPLACEMENT COMPATIBILITY TOLERANCE FOR DCOUP ELEMENTS           1.000E-05
     ROTATION COMPATIBILITY TOLERANCE FOR DCOUP ELEMENTS               1.000E-05

 EQUILIBRIUM WILL BE CHECKED FOR SEVERE DISCONTINUITY ITERATIONS

 TIME INCREMENTATION CONTROL PARAMETERS:
     FIRST EQUILIBRIUM ITERATION FOR CONSECUTIVE DIVERGENCE CHECK              4
     EQUILIBRIUM ITERATION AT WHICH LOG. CONVERGENCE RATE CHECK BEGINS         8
     EQUILIBRIUM ITERATION AFTER WHICH ALTERNATE RESIDUAL IS USED              9
     MAXIMUM EQUILIBRIUM ITERATIONS ALLOWED                                   16
     EQUILIBRIUM ITERATION COUNT FOR CUT-BACK IN NEXT INCREMENT               10
     MAXIMUM EQUILIB. ITERS IN TWO INCREMENTS FOR TIME INCREMENT INCREASE      4
     MAXIMUM ITERATIONS FOR SEVERE DISCONTINUITIES                            50
     MAXIMUM ATTEMPTS ALLOWED IN AN INCREMENT                                  5
     MAXIMUM DISCON. ITERS IN TWO INCREMENTS FOR TIME INCREMENT INCREASE      50
     MAXIMUM CONTACT AUGMENTATIONS FOR *SURFACE BEHAVIOR,AUGMENTED LAGRANGE   50
     CUT-BACK FACTOR AFTER DIVERGENCE                                 0.2500    
     CUT-BACK FACTOR FOR TOO SLOW CONVERGENCE                         0.5000    
     CUT-BACK FACTOR AFTER TOO MANY EQUILIBRIUM ITERATIONS            0.7500    
     CUT-BACK FACTOR AFTER TOO MANY SEVERE DISCONTINUITY ITERATIONS   0.2500    
     CUT-BACK FACTOR AFTER PROBLEMS IN ELEMENT ASSEMBLY               0.2500    
     INCREASE FACTOR AFTER TWO INCREMENTS THAT CONVERGE QUICKLY        1.500    
     MAX. TIME INCREMENT INCREASE FACTOR ALLOWED                       1.500    
     MAX. TIME INCREMENT INCREASE FACTOR ALLOWED (DYNAMICS)            1.250    
     MAX. TIME INCREMENT INCREASE FACTOR ALLOWED (DIFFUSION)           2.000    
     MINIMUM TIME INCREMENT RATIO FOR EXTRAPOLATION TO OCCUR          0.1000    
     MAX. RATIO OF TIME INCREMENT TO STABILITY LIMIT                   1.000    
     FRACTION OF STABILITY LIMIT FOR NEW TIME INCREMENT               0.9500    
     TIME INCREMENT INCREASE FACTOR BEFORE A TIME POINT                1.000    
     GLOBAL STABILIZATION CONTROL IS NOT USED

          PRINT OF INCREMENT NUMBER, TIME, ETC., EVERY    1  INCREMENTS

     THE MAXIMUM NUMBER OF INCREMENTS IN THIS STEP IS                     500

          LARGE DISPLACEMENT THEORY WILL BE USED

     LINEAR EXTRAPOLATION WILL BE USED

     CHARACTERISTIC ELEMENT LENGTH     2.000E-02

     DETAILS REGARDING ACTUAL SOLUTION WAVEFRONT REQUESTED

     DETAILED OUTPUT OF DIAGNOSTICS TO DATABASE REQUESTED

     PRINT OF INCREMENT NUMBER, TIME, ETC., TO THE MESSAGE FILE EVERY     1  INCREMENTS

     COLLECTING MODEL CONSTRAINT INFORMATION FOR OVERCONSTRAINT CHECKS

     COLLECTING STEP CONSTRAINT INFORMATION FOR OVERCONSTRAINT CHECKS


  INCREMENT     1 STARTS. ATTEMPT NUMBER  1
 
	SYMMETRIC DIRECT SPARSE SOLVER RUNNING ON
 	1 HOST:        1 MPI RANK  x 1 THREAD
 	NUMBER OF EQUATIONS:     136656
 	NUMBER OF RHS:           2
 	NUMBER OF FLOPS:         1.438e+10

     CHECK POINT   START OF SOLVER    

     CHECK POINT  END OF SOLVER       

       ELAPSED USER TIME (SEC)      =  0.90000    
       ELAPSED SYSTEM TIME (SEC)    =   1.3000    
       ELAPSED TOTAL CPU TIME (SEC) =   2.2000    
       ELAPSED WALLCLOCK TIME (SEC) =          3

               CONVERGENCE CHECKS FOR EQUILIBRIUM ITERATION     1


 AVERAGE FORCE                      1.685E+03   TIME AVG. FORCE       1.685E+03
 LARGEST RESIDUAL FORCE             2.470E+04   AT NODE      22801   DOF  1
   INSTANCE: PANEL-1                                                                         
 LARGEST INCREMENT OF DISP.         3.641E-03   AT NODE      11401   DOF  3
   INSTANCE: PANEL-1                                                                         
 LARGEST CORRECTION TO DISP.        3.641E-03   AT NODE      11401   DOF  3
   INSTANCE: PANEL-1                                                                         
          FORCE     EQUILIBRIUM NOT ACHIEVED WITHIN TOLERANCE.

 AVERAGE MOMENT                     0.333       TIME AVG. MOMENT      0.333    
 LARGEST RESIDUAL MOMENT           -0.241       AT NODE      22575   DOF  5
   INSTANCE: PANEL-1                                                                         
 LARGEST INCREMENT OF ROTATION      3.818E-03   AT NODE         76   DOF  5
   INSTANCE: PANEL-1                                                                         
 LARGEST CORRECTION TO ROTATION     3.818E-03   AT NODE         76   DOF  5
   INSTANCE: PANEL-1                                                                         
          MOMENT    EQUILIBRIUM NOT ACHIEVED WITHIN TOLERANCE.
 
	SYMMETRIC DIRECT SPARSE SOLVER RUNNING ON
 	1 HOST:        1 MPI RANK  x 1 THREAD
 	NUMBER OF EQUATIONS:     136656
 	NUMBER OF RHS:           2
 	NUMBER OF FLOPS:         1.438e+10

     CHECK POINT   START OF SOLVER    

     CHECK POINT  END OF SOLVER       

       ELAPSED USER TIME (SEC)      =   1.2000    
       ELAPSED SYSTEM TIME (SEC)    =  0.10000    
       ELAPSED TOTAL CPU TIME (SEC) =   1.3000    
       ELAPSED WALLCLOCK TIME (SEC) =          2
 

 ***WARNING: THE SYSTEM MATRIX HAS 6 NEGATIVE EIGENVALUES.

     NEGATIVE EIGENVALUES MEAN THAT THE SYSTEM MATRIX IS NOT 
     POSITIVE DEFINITE:
     FOR EXAMPLE, A BIFURCATION (BUCKLING) LOAD MAY HAVE BEEN EXCEEDED.

               CONVERGENCE CHECKS FOR EQUILIBRIUM ITERATION     2


 AVERAGE FORCE                       207.       TIME AVG. FORCE        207.    
 LARGEST RESIDUAL FORCE             -377.       AT NODE      22801   DOF  1
   INSTANCE: PANEL-1                                                                         
 LARGEST INCREMENT OF DISP.         3.810E-03   AT NODE      11401   DOF  3
   INSTANCE: PANEL-1                                                                         
 LARGEST CORRECTION TO DISP.       -6.273E-04   AT NODE      22651   DOF  1
   INSTANCE: PANEL-1                                                                         
          FORCE     EQUILIBRIUM NOT ACHIEVED WITHIN TOLERANCE.

 AVERAGE MOMENT                     0.348       TIME AVG. MOMENT      0.348    
 LARGEST RESIDUAL MOMENT            8.352E-03   AT NODE      20914   DOF  5
   INSTANCE: PANEL-1                                                                         
 LARGEST INCREMENT OF ROTATION      4.030E-03   AT NODE      11326   DOF  4
   INSTANCE: PANEL-1                                                                         
 LARGEST CORRECTION TO ROTATION     2.130E-04   AT NODE      11326   DOF  4
   INSTANCE: PANEL-1                                                                         
          MOMENT    EQUILIBRIUM NOT ACHIEVED WITHIN TOLERANCE.
 
	SYMMETRIC DIRECT SPARSE SOLVER RUNNING ON
 	1 HOST:        1 MPI RANK  x 1 THREAD
 	NUMBER OF EQUATIONS:     136656
 	NUMBER OF RHS:           2
 	NUMBER OF FLOPS:         1.438e+10

     CHECK POINT   START OF SOLVER    

     CHECK POINT  END OF SOLVER       

       ELAPSED USER TIME (SEC)      =   1.3000    
       ELAPSED SYSTEM TIME (SEC)    =   0.0000    
       ELAPSED TOTAL CPU TIME (SEC) =   1.3000    
       ELAPSED WALLCLOCK TIME (SEC) =          2

               CONVERGENCE CHECKS FOR EQUILIBRIUM ITERATION     3


 AVERAGE FORCE                       261.       TIME AVG. FORCE        261.    
 LARGEST RESIDUAL FORCE              2.27       AT NODE      22801   DOF  1
   INSTANCE: PANEL-1                                                                         
 LARGEST INCREMENT OF DISP.         3.802E-03   AT NODE      11401   DOF  3
   INSTANCE: PANEL-1                                                                         
 LARGEST CORRECTION TO DISP.        2.349E-05   AT NODE      22651   DOF  1
   INSTANCE: PANEL-1                                                                         
          FORCE     EQUILIBRIUM NOT ACHIEVED WITHIN TOLERANCE.

 AVERAGE MOMENT                     0.350       TIME AVG. MOMENT      0.350    
 LARGEST RESIDUAL MOMENT           -9.528E-05   AT NODE      22575   DOF  5
   INSTANCE: PANEL-1                                                                         
 LARGEST INCREMENT OF ROTATION      4.024E-03   AT NODE      11326   DOF  4
   INSTANCE: PANEL-1                                                                         
 LARGEST CORRECTION TO ROTATION    -4.619E-05   AT NODE      22726   DOF  5
   INSTANCE: PANEL-1                                                                         
 ESTIMATE OF ROTATION CORRECTION    5.270E-07
 MOMENT    EQUILIB. ACCEPTED BASED ON SMALL RESIDUAL AND ESTIMATED CORRECTION
 
	SYMMETRIC DIRECT SPARSE SOLVER RUNNING ON
 	1 HOST:        1 MPI RANK  x 1 THREAD
 	NUMBER OF EQUATIONS:     136656
 	NUMBER OF RHS:           2
 	NUMBER OF FLOPS:         1.438e+10

     CHECK POINT   START OF SOLVER    

     CHECK POINT  END OF SOLVER       

       ELAPSED USER TIME (SEC)      =   1.2000    
       ELAPSED SYSTEM TIME (SEC)    =   0.0000    
       ELAPSED TOTAL CPU TIME (SEC) =   1.2000    
       ELAPSED WALLCLOCK TIME (SEC) =          2

               CONVERGENCE CHECKS FOR EQUILIBRIUM ITERATION     4


 AVERAGE FORCE                       261.       TIME AVG. FORCE        261.    
 LARGEST RESIDUAL FORCE             2.293E-02   AT NODE      22801   DOF  1
   INSTANCE: PANEL-1                                                                         
 LARGEST INCREMENT OF DISP.         3.801E-03   AT NODE      11401   DOF  3
   INSTANCE: PANEL-1                                                                         
 LARGEST CORRECTION TO DISP.        1.195E-06   AT NODE      18951   DOF  3
   INSTANCE: PANEL-1                                                                         
          THE FORCE     EQUILIBRIUM EQUATIONS HAVE CONVERGED

 AVERAGE MOMENT                     0.350       TIME AVG. MOMENT      0.350    
 LARGEST RESIDUAL MOMENT           -5.042E-08   AT NODE       3436   DOF  6
   INSTANCE: PANEL-1                                                                         
 LARGEST INCREMENT OF ROTATION     -4.023E-03   AT NODE      11476   DOF  4
   INSTANCE: PANEL-1                                                                         
 LARGEST CORRECTION TO ROTATION    -3.748E-06   AT NODE      22726   DOF  5
   INSTANCE: PANEL-1                                                                         
          THE MOMENT    EQUILIBRIUM EQUATIONS HAVE CONVERGED

 ITERATION SUMMARY FOR THE INCREMENT:   4 TOTAL ITERATIONS, OF WHICH
   0 ARE SEVERE DISCONTINUITY ITERATIONS AND  4 ARE EQUILIBRIUM ITERATIONS.


                                INCREMENT     1 SUMMARY


     CURRENT LOAD PROPORTIONALITY FACTOR         0.1517    
     TOTAL ARC LENGTH    1.00    , INCREMENT OF ARC LENGTH    1.00    


  INCREMENT     2 STARTS. ATTEMPT NUMBER  1
 
	SYMMETRIC DIRECT SPARSE SOLVER RUNNING ON
 	1 HOST:        1 MPI RANK  x 1 THREAD
 	NUMBER OF EQUATIONS:     136656
 	NUMBER OF RHS:           2
 	NUMBER OF FLOPS:         1.438e+10

     CHECK POINT   START OF SOLVER    

     CHECK POINT  END OF SOLVER       

       ELAPSED USER TIME (SEC)      =   1.3000    
       ELAPSED SYSTEM TIME (SEC)    =   0.0000    
       ELAPSED TOTAL CPU TIME (SEC) =   1.3000    
       ELAPSED WALLCLOCK TIME (SEC) =          1

               CONVERGENCE CHECKS FOR EQUILIBRIUM ITERATION     1


 AVERAGE FORCE                       317.       TIME AVG. FORCE        289.    
 LARGEST RESIDUAL FORCE             2.698E+04   AT NODE      22801   DOF  1
   INSTANCE: PANEL-1                                                                         
 LARGEST INCREMENT OF DISP.         3.695E-03   AT NODE      11401   DOF  3
   INSTANCE: PANEL-1                                                                         
 LARGEST CORRECTION TO DISP.        3.695E-03   AT NODE      11401   DOF  3
   INSTANCE: PANEL-1                                                                         
          FORCE     EQUILIBRIUM NOT ACHIEVED WITHIN TOLERANCE.

 AVERAGE MOMENT                     0.695       TIME AVG. MOMENT      0.522    
 LARGEST RESIDUAL MOMENT           -1.037E-02   AT NODE      11327   DOF  4
   INSTANCE: PANEL-1                                                                         
 LARGEST INCREMENT OF ROTATION     -3.970E-03   AT NODE      11476   DOF  4
   INSTANCE: PANEL-1                                                                         
 LARGEST CORRECTION TO ROTATION    -3.970E-03   AT NODE      11476   DOF  4
   INSTANCE: PANEL-1                                                                         
          MOMENT    EQUILIBRIUM NOT ACHIEVED WITHIN TOLERANCE.
 
	SYMMETRIC DIRECT SPARSE SOLVER RUNNING ON
 	1 HOST:        1 MPI RANK  x 1 THREAD
 	NUMBER OF EQUATIONS:     136656
 	NUMBER OF RHS:           2
 	NUMBER OF FLOPS:         1.438e+10

     CHECK POINT   START OF SOLVER    

     CHECK POINT  END OF SOLVER       

       ELAPSED USER TIME (SEC)      =   1.2000    
       ELAPSED SYSTEM TIME (SEC)    =   0.0000    
       ELAPSED TOTAL CPU TIME (SEC) =   1.2000    
       ELAPSED WALLCLOCK TIME (SEC) =          1

               CONVERGENCE CHECKS FOR EQUILIBRIUM ITERATION     2


 AVERAGE FORCE                       322.       TIME AVG. FORCE        292.    
 LARGEST RESIDUAL FORCE              9.52       AT NODE      22801   DOF  1
   INSTANCE: PANEL-1                                                                         
 LARGEST INCREMENT OF DISP.         3.652E-03   AT NODE      11401   DOF  3
   INSTANCE: PANEL-1                                                                         
 LARGEST CORRECTION TO DISP.       -4.268E-05   AT NODE      11401   DOF  3
   INSTANCE: PANEL-1                                                                         
          FORCE     EQUILIBRIUM NOT ACHIEVED WITHIN TOLERANCE.

 AVERAGE MOMENT                     0.698       TIME AVG. MOMENT      0.524    
 LARGEST RESIDUAL MOMENT            9.249E-05   AT NODE       8005   DOF  4
   INSTANCE: PANEL-1                                                                         
 LARGEST INCREMENT OF ROTATION     -4.016E-03   AT NODE      11476   DOF  4
   INSTANCE: PANEL-1                                                                         
 LARGEST CORRECTION TO ROTATION    -7.773E-05   AT NODE      11374   DOF  4
   INSTANCE: PANEL-1                                                                         
 ESTIMATE OF ROTATION CORRECTION    2.127E-05
 MOMENT    EQUILIB. ACCEPTED BASED ON SMALL RESIDUAL AND ESTIMATED CORRECTION
 
	SYMMETRIC DIRECT SPARSE SOLVER RUNNING ON
 	1 HOST:        1 MPI RANK  x 1 THREAD
 	NUMBER OF EQUATIONS:     136656
 	NUMBER OF RHS:           2
 	NUMBER OF FLOPS:         1.438e+10

     CHECK POINT   START OF SOLVER    

     CHECK POINT  END OF SOLVER       

       ELAPSED USER TIME (SEC)      =   1.2000    
       ELAPSED SYSTEM TIME (SEC)    =   0.0000    
       ELAPSED TOTAL CPU TIME (SEC) =   1.2000    
       ELAPSED WALLCLOCK TIME (SEC) =          1

               CONVERGENCE CHECKS FOR EQUILIBRIUM ITERATION     3


 AVERAGE FORCE                       322.       TIME AVG. FORCE        292.    
 LARGEST RESIDUAL FORCE             6.981E-03   AT NODE      22801   DOF  1
   INSTANCE: PANEL-1                                                                         
 LARGEST INCREMENT OF DISP.         3.651E-03   AT NODE      11401   DOF  3
   INSTANCE: PANEL-1                                                                         
 LARGEST CORRECTION TO DISP.       -8.715E-07   AT NODE      11401   DOF  3
   INSTANCE: PANEL-1                                                                         
          THE FORCE     EQUILIBRIUM EQUATIONS HAVE CONVERGED

 AVERAGE MOMENT                     0.698       TIME AVG. MOMENT      0.524    
 LARGEST RESIDUAL MOMENT           -6.778E-08   AT NODE      15685   DOF  6
   INSTANCE: PANEL-1                                                                         
 LARGEST INCREMENT OF ROTATION     -4.018E-03   AT NODE      11476   DOF  4
   INSTANCE: PANEL-1                                                                         
 LARGEST CORRECTION TO ROTATION     2.197E-06   AT NODE      15856   DOF  4
   INSTANCE: PANEL-1                                                                         
          THE MOMENT    EQUILIBRIUM EQUATIONS HAVE CONVERGED
          ARC LENGTH INCREMENT MAY NOW INCREASE TO     1.50    

 ITERATION SUMMARY FOR THE INCREMENT:   3 TOTAL ITERATIONS, OF WHICH
   0 ARE SEVERE DISCONTINUITY ITERATIONS AND  3 ARE EQUILIBRIUM ITERATIONS.


                                INCREMENT     2 SUMMARY


     CURRENT LOAD PROPORTIONALITY FACTOR         0.1799    
     TOTAL ARC LENGTH    2.00    , INCREMENT OF ARC LENGTH    1.00    


  INCREMENT     3 STARTS. ATTEMPT NUMBER  1
 
	SYMMETRIC DIRECT SPARSE SOLVER RUNNING ON
 	1 HOST:        1 MPI RANK  x 1 THREAD
 	NUMBER OF EQUATIONS:     136656
 	NUMBER OF RHS:           2
 	NUMBER OF FLOPS:         1.438e+10

     CHECK POINT   START OF SOLVER    

     CHECK POINT  END OF SOLVER       

       ELAPSED USER TIME (SEC)      =   1.2000    
       ELAPSED SYSTEM TIME (SEC)    =  0.10000    
       ELAPSED TOTAL CPU TIME (SEC) =   1.3000    
       ELAPSED WALLCLOCK TIME (SEC) =          1

               CONVERGENCE CHECKS FOR EQUILIBRIUM ITERATION     1


 AVERAGE FORCE                       398.       TIME AVG. FORCE        327.    
 LARGEST RESIDUAL FORCE             6.552E+04   AT NODE      22801   DOF  1
   INSTANCE: PANEL-1                                                                         
 LARGEST INCREMENT OF DISP.         5.398E-03   AT NODE      11401   DOF  3
   INSTANCE: PANEL-1                                                                         
 LARGEST CORRECTION TO DISP.        5.398E-03   AT NODE      11401   DOF  3
   INSTANCE: PANEL-1                                                                         
          FORCE     EQUILIBRIUM NOT ACHIEVED WITHIN TOLERANCE.

 AVERAGE MOMENT                      1.23       TIME AVG. MOMENT      0.758    
 LARGEST RESIDUAL MOMENT            3.574E-02   AT NODE      11475   DOF  4
   INSTANCE: PANEL-1                                                                         
 LARGEST INCREMENT OF ROTATION      6.112E-03   AT NODE      11326   DOF  4
   INSTANCE: PANEL-1                                                                         
 LARGEST CORRECTION TO ROTATION     6.112E-03   AT NODE      11326   DOF  4
   INSTANCE: PANEL-1                                                                         
          MOMENT    EQUILIBRIUM NOT ACHIEVED WITHIN TOLERANCE.
 
	SYMMETRIC DIRECT SPARSE SOLVER RUNNING ON
 	1 HOST:        1 MPI RANK  x 1 THREAD
 	NUMBER OF EQUATIONS:     136656
 	NUMBER OF RHS:           2
 	NUMBER OF FLOPS:         1.438e+10

     CHECK POINT   START OF SOLVER    

     CHECK POINT  END OF SOLVER       

       ELAPSED USER TIME (SEC)      =   1.2000    
       ELAPSED SYSTEM TIME (SEC)    =  0.10000    
       ELAPSED TOTAL CPU TIME (SEC) =   1.3000    
       ELAPSED WALLCLOCK TIME (SEC) =          1

               CONVERGENCE CHECKS FOR EQUILIBRIUM ITERATION     2


 AVERAGE FORCE                       433.       TIME AVG. FORCE        339.    
 LARGEST RESIDUAL FORCE              99.8       AT NODE      22801   DOF  1
   INSTANCE: PANEL-1                                                                         
 LARGEST INCREMENT OF DISP.         5.269E-03   AT NODE      11401   DOF  3
   INSTANCE: PANEL-1                                                                         
 LARGEST CORRECTION TO DISP.       -1.289E-04   AT NODE      11401   DOF  3
   INSTANCE: PANEL-1                                                                         
          FORCE     EQUILIBRIUM NOT ACHIEVED WITHIN TOLERANCE.

 AVERAGE MOMENT                      1.23       TIME AVG. MOMENT      0.761    
 LARGEST RESIDUAL MOMENT           -6.792E-04   AT NODE      22610   DOF  5
   INSTANCE: PANEL-1                                                                         
 LARGEST INCREMENT OF ROTATION      6.244E-03   AT NODE      11326   DOF  4
   INSTANCE: PANEL-1                                                                         
 LARGEST CORRECTION TO ROTATION    -2.579E-04   AT NODE       5134   DOF  4
   INSTANCE: PANEL-1                                                                         
          ROTATION CORRECTION TOO LARGE COMPARED TO ROTATION INCREMENT
 
	SYMMETRIC DIRECT SPARSE SOLVER RUNNING ON
 	1 HOST:        1 MPI RANK  x 1 THREAD
 	NUMBER OF EQUATIONS:     136656
 	NUMBER OF RHS:           2
 	NUMBER OF FLOPS:         1.438e+10

     CHECK POINT   START OF SOLVER    

     CHECK POINT  END OF SOLVER       

       ELAPSED USER TIME (SEC)      =   1.2000    
       ELAPSED SYSTEM TIME (SEC)    =   0.0000    
       ELAPSED TOTAL CPU TIME (SEC) =   1.2000    
       ELAPSED WALLCLOCK TIME (SEC) =          2

               CONVERGENCE CHECKS FOR EQUILIBRIUM ITERATION     3


 AVERAGE FORCE                       432.       TIME AVG. FORCE        339.    
 LARGEST RESIDUAL FORCE             0.870       AT NODE      22801   DOF  1
   INSTANCE: PANEL-1                                                                         
 LARGEST INCREMENT OF DISP.         5.260E-03   AT NODE      11401   DOF  3
   INSTANCE: PANEL-1                                                                         
 LARGEST CORRECTION TO DISP.       -8.580E-06   AT NODE      11401   DOF  3
   INSTANCE: PANEL-1                                                                         
          THE FORCE     EQUILIBRIUM EQUATIONS HAVE CONVERGED

 AVERAGE MOMENT                      1.24       TIME AVG. MOMENT      0.761    
 LARGEST RESIDUAL MOMENT           -9.916E-07   AT NODE       2973   DOF  6
   INSTANCE: PANEL-1                                                                         
 LARGEST INCREMENT OF ROTATION     -6.253E-03   AT NODE      11476   DOF  4
   INSTANCE: PANEL-1                                                                         
 LARGEST CORRECTION TO ROTATION     2.017E-05   AT NODE        113   DOF  5
   INSTANCE: PANEL-1                                                                         
          THE MOMENT    EQUILIBRIUM EQUATIONS HAVE CONVERGED
          ARC LENGTH INCREMENT MAY NOW INCREASE TO     2.25    

 ITERATION SUMMARY FOR THE INCREMENT:   3 TOTAL ITERATIONS, OF WHICH
   0 ARE SEVERE DISCONTINUITY ITERATIONS AND  3 ARE EQUILIBRIUM ITERATIONS.


                                INCREMENT     3 SUMMARY


     CURRENT LOAD PROPORTIONALITY FACTOR         0.2275    
     TOTAL ARC LENGTH    3.50    , INCREMENT OF ARC LENGTH    1.50    


  INCREMENT     4 STARTS. ATTEMPT NUMBER  1
 
	SYMMETRIC DIRECT SPARSE SOLVER RUNNING ON
 	1 HOST:        1 MPI RANK  x 1 THREAD
 	NUMBER OF EQUATIONS:     136656
 	NUMBER OF RHS:           2
 	NUMBER OF FLOPS:         1.438e+10

     CHECK POINT   START OF SOLVER    

     CHECK POINT  END OF SOLVER       

       ELAPSED USER TIME (SEC)      =   1.2000    
       ELAPSED SYSTEM TIME (SEC)    =  0.10000    
       ELAPSED TOTAL CPU TIME (SEC) =   1.3000    
       ELAPSED WALLCLOCK TIME (SEC) =          1

               CONVERGENCE CHECKS FOR EQUILIBRIUM ITERATION     1


 AVERAGE FORCE                       582.       TIME AVG. FORCE        399.    
 LARGEST RESIDUAL FORCE             1.717E+05   AT NODE      22801   DOF  1
   INSTANCE: PANEL-1                                                                         
 LARGEST INCREMENT OF DISP.         7.662E-03   AT NODE      11401   DOF  3
   INSTANCE: PANEL-1                                                                         
 LARGEST CORRECTION TO DISP.        7.662E-03   AT NODE      11401   DOF  3
   INSTANCE: PANEL-1                                                                         
          FORCE     EQUILIBRIUM NOT ACHIEVED WITHIN TOLERANCE.

 AVERAGE MOMENT                      2.07       TIME AVG. MOMENT       1.09    
 LARGEST RESIDUAL MOMENT           -0.133       AT NODE      11327   DOF  4
   INSTANCE: PANEL-1                                                                         
 LARGEST INCREMENT OF ROTATION     -9.595E-03   AT NODE      11476   DOF  4
   INSTANCE: PANEL-1                                                                         
 LARGEST CORRECTION TO ROTATION    -9.595E-03   AT NODE      11476   DOF  4
   INSTANCE: PANEL-1                                                                         
          MOMENT    EQUILIBRIUM NOT ACHIEVED WITHIN TOLERANCE.
 
	SYMMETRIC DIRECT SPARSE SOLVER RUNNING ON
 	1 HOST:        1 MPI RANK  x 1 THREAD
 	NUMBER OF EQUATIONS:     136656
 	NUMBER OF RHS:           2
 	NUMBER OF FLOPS:         1.438e+10

     CHECK POINT   START OF SOLVER    

     CHECK POINT  END OF SOLVER       

       ELAPSED USER TIME (SEC)      =   1.2000    
       ELAPSED SYSTEM TIME (SEC)    =  0.10000    
       ELAPSED TOTAL CPU TIME (SEC) =   1.3000    
       ELAPSED WALLCLOCK TIME (SEC) =          1

               CONVERGENCE CHECKS FOR EQUILIBRIUM ITERATION     2


 AVERAGE FORCE                       645.       TIME AVG. FORCE        415.    
 LARGEST RESIDUAL FORCE              732.       AT NODE      22801   DOF  1
   INSTANCE: PANEL-1                                                                         
 LARGEST INCREMENT OF DISP.         7.379E-03   AT NODE      11401   DOF  3
   INSTANCE: PANEL-1                                                                         
 LARGEST CORRECTION TO DISP.       -2.829E-04   AT NODE      11401   DOF  3
   INSTANCE: PANEL-1                                                                         
          FORCE     EQUILIBRIUM NOT ACHIEVED WITHIN TOLERANCE.

 AVERAGE MOMENT                      2.09       TIME AVG. MOMENT       1.09    
 LARGEST RESIDUAL MOMENT           -4.857E-03   AT NODE      22615   DOF  5
   INSTANCE: PANEL-1                                                                         
 LARGEST INCREMENT OF ROTATION     -9.818E-03   AT NODE      11476   DOF  4
   INSTANCE: PANEL-1                                                                         
 LARGEST CORRECTION TO ROTATION    -7.613E-04   AT NODE      18422   DOF  4
   INSTANCE: PANEL-1                                                                         
          ROTATION CORRECTION TOO LARGE COMPARED TO ROTATION INCREMENT
 
	SYMMETRIC DIRECT SPARSE SOLVER RUNNING ON
 	1 HOST:        1 MPI RANK  x 1 THREAD
 	NUMBER OF EQUATIONS:     136656
 	NUMBER OF RHS:           2
 	NUMBER OF FLOPS:         1.438e+10

     CHECK POINT   START OF SOLVER    

     CHECK POINT  END OF SOLVER       

       ELAPSED USER TIME (SEC)      =   1.2000    
       ELAPSED SYSTEM TIME (SEC)    =  0.10000    
       ELAPSED TOTAL CPU TIME (SEC) =   1.3000    
       ELAPSED WALLCLOCK TIME (SEC) =          1

               CONVERGENCE CHECKS FOR EQUILIBRIUM ITERATION     3


 AVERAGE FORCE                       640.       TIME AVG. FORCE        414.    
 LARGEST RESIDUAL FORCE              22.7       AT NODE      22801   DOF  1
   INSTANCE: PANEL-1                                                                         
 LARGEST INCREMENT OF DISP.         7.342E-03   AT NODE      11401   DOF  3
   INSTANCE: PANEL-1                                                                         
 LARGEST CORRECTION TO DISP.       -3.738E-05   AT NODE      11401   DOF  3
   INSTANCE: PANEL-1                                                                         
          FORCE     EQUILIBRIUM NOT ACHIEVED WITHIN TOLERANCE.

 AVERAGE MOMENT                      2.10       TIME AVG. MOMENT       1.10    
 LARGEST RESIDUAL MOMENT            1.645E-05   AT NODE      22613   DOF  5
   INSTANCE: PANEL-1                                                                         
 LARGEST INCREMENT OF ROTATION     -9.849E-03   AT NODE      11476   DOF  4
   INSTANCE: PANEL-1                                                                         
 LARGEST CORRECTION TO ROTATION     1.133E-04   AT NODE         33   DOF  5
   INSTANCE: PANEL-1                                                                         
 ESTIMATE OF ROTATION CORRECTION   -3.837E-07
 MOMENT    EQUILIB. ACCEPTED BASED ON SMALL RESIDUAL AND ESTIMATED CORRECTION
 
	SYMMETRIC DIRECT SPARSE SOLVER RUNNING ON
 	1 HOST:        1 MPI RANK  x 1 THREAD
 	NUMBER OF EQUATIONS:     136656
 	NUMBER OF RHS:           2
 	NUMBER OF FLOPS:         1.438e+10

     CHECK POINT   START OF SOLVER    

     CHECK POINT  END OF SOLVER       

       ELAPSED USER TIME (SEC)      =   1.3000    
       ELAPSED SYSTEM TIME (SEC)    =  0.10000    
       ELAPSED TOTAL CPU TIME (SEC) =   1.4000    
       ELAPSED WALLCLOCK TIME (SEC) =          1

               CONVERGENCE CHECKS FOR EQUILIBRIUM ITERATION     4


 AVERAGE FORCE                       640.       TIME AVG. FORCE        414.    
 LARGEST RESIDUAL FORCE             1.587E-04   AT NODE      22801   DOF  1
   INSTANCE: PANEL-1                                                                         
 LARGEST INCREMENT OF DISP.         7.342E-03   AT NODE      11401   DOF  3
   INSTANCE: PANEL-1                                                                         
 LARGEST CORRECTION TO DISP.        1.339E-07   AT NODE      11448   DOF  3
   INSTANCE: PANEL-1                                                                         
          THE FORCE     EQUILIBRIUM EQUATIONS HAVE CONVERGED

 AVERAGE MOMENT                      2.10       TIME AVG. MOMENT       1.10    
 LARGEST RESIDUAL MOMENT           -7.114E-08   AT NODE      19026   DOF  5
   INSTANCE: PANEL-1                                                                         
 LARGEST INCREMENT OF ROTATION     -9.849E-03   AT NODE      11476   DOF  4
   INSTANCE: PANEL-1                                                                         
 LARGEST CORRECTION TO ROTATION    -3.960E-07   AT NODE      11476   DOF  4
   INSTANCE: PANEL-1                                                                         
          THE MOMENT    EQUILIBRIUM EQUATIONS HAVE CONVERGED
          ARC LENGTH INCREMENT MAY NOW INCREASE TO     3.38    

 ITERATION SUMMARY FOR THE INCREMENT:   4 TOTAL ITERATIONS, OF WHICH
   0 ARE SEVERE DISCONTINUITY ITERATIONS AND  4 ARE EQUILIBRIUM ITERATIONS.


                                INCREMENT     4 SUMMARY


     CURRENT LOAD PROPORTIONALITY FACTOR         0.3193    
     TOTAL ARC LENGTH    5.75    , INCREMENT OF ARC LENGTH    2.25    


  INCREMENT     5 STARTS. ATTEMPT NUMBER  1
 
	SYMMETRIC DIRECT SPARSE SOLVER RUNNING ON
 	1 HOST:        1 MPI RANK  x 1 THREAD
 	NUMBER OF EQUATIONS:     136656
 	NUMBER OF RHS:           2
 	NUMBER OF FLOPS:         1.438e+10

     CHECK POINT   START OF SOLVER    

     CHECK POINT  END OF SOLVER       

       ELAPSED USER TIME (SEC)      =   1.3000    
       ELAPSED SYSTEM TIME (SEC)    =   0.0000    
       ELAPSED TOTAL CPU TIME (SEC) =   1.3000    
       ELAPSED WALLCLOCK TIME (SEC) =          1

               CONVERGENCE CHECKS FOR EQUILIBRIUM ITERATION     1


 AVERAGE FORCE                      1.019E+03   TIME AVG. FORCE        535.    
 LARGEST RESIDUAL FORCE             4.897E+05   AT NODE      22801   DOF  1
   INSTANCE: PANEL-1                                                                         
 LARGEST INCREMENT OF DISP.         1.053E-02   AT NODE      11401   DOF  3
   INSTANCE: PANEL-1                                                                         
 LARGEST CORRECTION TO DISP.        1.053E-02   AT NODE      11401   DOF  3
   INSTANCE: PANEL-1                                                                         
          FORCE     EQUILIBRIUM NOT ACHIEVED WITHIN TOLERANCE.

 AVERAGE MOMENT                      3.48       TIME AVG. MOMENT       1.57    
 LARGEST RESIDUAL MOMENT           -0.482       AT NODE       9515   DOF  4
   INSTANCE: PANEL-1                                                                         
 LARGEST INCREMENT OF ROTATION      1.511E-02   AT NODE       8910   DOF  4
   INSTANCE: PANEL-1                                                                         
 LARGEST CORRECTION TO ROTATION     1.511E-02   AT NODE       8910   DOF  4
   INSTANCE: PANEL-1                                                                         
          MOMENT    EQUILIBRIUM NOT ACHIEVED WITHIN TOLERANCE.
 
	SYMMETRIC DIRECT SPARSE SOLVER RUNNING ON
 	1 HOST:        1 MPI RANK  x 1 THREAD
 	NUMBER OF EQUATIONS:     136656
 	NUMBER OF RHS:           2
 	NUMBER OF FLOPS:         1.438e+10

     CHECK POINT   START OF SOLVER    

     CHECK POINT  END OF SOLVER       

       ELAPSED USER TIME (SEC)      =   1.3000    
       ELAPSED SYSTEM TIME (SEC)    =   0.0000    
       ELAPSED TOTAL CPU TIME (SEC) =   1.3000    
       ELAPSED WALLCLOCK TIME (SEC) =          1

               CONVERGENCE CHECKS FOR EQUILIBRIUM ITERATION     2


 AVERAGE FORCE                      1.009E+03   TIME AVG. FORCE        533.    
 LARGEST RESIDUAL FORCE             4.046E+03   AT NODE      22801   DOF  1
   INSTANCE: PANEL-1                                                                         
 LARGEST INCREMENT OF DISP.         1.013E-02   AT NODE      11401   DOF  3
   INSTANCE: PANEL-1                                                                         
 LARGEST CORRECTION TO DISP.        5.486E-04   AT NODE       3903   DOF  3
   INSTANCE: PANEL-1                                                                         
          FORCE     EQUILIBRIUM NOT ACHIEVED WITHIN TOLERANCE.

 AVERAGE MOMENT                      3.55       TIME AVG. MOMENT       1.59    
 LARGEST RESIDUAL MOMENT            3.330E-02   AT NODE      17518   DOF  4
   INSTANCE: PANEL-1                                                                         
 LARGEST INCREMENT OF ROTATION      1.581E-02   AT NODE      15705   DOF  4
   INSTANCE: PANEL-1                                                                         
 LARGEST CORRECTION TO ROTATION     1.948E-03   AT NODE      19027   DOF  4
   INSTANCE: PANEL-1                                                                         
          MOMENT    EQUILIBRIUM NOT ACHIEVED WITHIN TOLERANCE.
 
	SYMMETRIC DIRECT SPARSE SOLVER RUNNING ON
 	1 HOST:        1 MPI RANK  x 1 THREAD
 	NUMBER OF EQUATIONS:     136656
 	NUMBER OF RHS:           2
 	NUMBER OF FLOPS:         1.438e+10

     CHECK POINT   START OF SOLVER    

     CHECK POINT  END OF SOLVER       

       ELAPSED USER TIME (SEC)      =   1.3000    
       ELAPSED SYSTEM TIME (SEC)    =   0.0000    
       ELAPSED TOTAL CPU TIME (SEC) =   1.3000    
       ELAPSED WALLCLOCK TIME (SEC) =          1

               CONVERGENCE CHECKS FOR EQUILIBRIUM ITERATION     3


 AVERAGE FORCE                       990.       TIME AVG. FORCE        529.    
 LARGEST RESIDUAL FORCE              386.       AT NODE      22801   DOF  1
   INSTANCE: PANEL-1                                                                         
 LARGEST INCREMENT OF DISP.         1.004E-02   AT NODE      11401   DOF  3
   INSTANCE: PANEL-1                                                                         
 LARGEST CORRECTION TO DISP.        1.469E-04   AT NODE      19050   DOF  3
   INSTANCE: PANEL-1                                                                         
          FORCE     EQUILIBRIUM NOT ACHIEVED WITHIN TOLERANCE.

 AVERAGE MOMENT                      3.57       TIME AVG. MOMENT       1.59    
 LARGEST RESIDUAL MOMENT           -4.692E-04   AT NODE       2720   DOF  5
   INSTANCE: PANEL-1                                                                         
 LARGEST INCREMENT OF ROTATION      1.616E-02   AT NODE      16158   DOF  4
   INSTANCE: PANEL-1                                                                         
 LARGEST CORRECTION TO ROTATION    -5.536E-04   AT NODE       4077   DOF  4
   INSTANCE: PANEL-1                                                                         
 ESTIMATE OF ROTATION CORRECTION    7.801E-06
 MOMENT    EQUILIB. ACCEPTED BASED ON SMALL RESIDUAL AND ESTIMATED CORRECTION
 
	SYMMETRIC DIRECT SPARSE SOLVER RUNNING ON
 	1 HOST:        1 MPI RANK  x 1 THREAD
 	NUMBER OF EQUATIONS:     136656
 	NUMBER OF RHS:           2
 	NUMBER OF FLOPS:         1.438e+10

     CHECK POINT   START OF SOLVER    

     CHECK POINT  END OF SOLVER       

       ELAPSED USER TIME (SEC)      =   1.2000    
       ELAPSED SYSTEM TIME (SEC)    =  0.10000    
       ELAPSED TOTAL CPU TIME (SEC) =   1.3000    
       ELAPSED WALLCLOCK TIME (SEC) =          1

               CONVERGENCE CHECKS FOR EQUILIBRIUM ITERATION     4


 AVERAGE FORCE                       990.       TIME AVG. FORCE        529.    
 LARGEST RESIDUAL FORCE             5.601E-02   AT NODE      22801   DOF  1
   INSTANCE: PANEL-1                                                                         
 LARGEST INCREMENT OF DISP.         1.004E-02   AT NODE      11401   DOF  3
   INSTANCE: PANEL-1                                                                         
 LARGEST CORRECTION TO DISP.        1.907E-06   AT NODE      11450   DOF  3
   INSTANCE: PANEL-1                                                                         
          THE FORCE     EQUILIBRIUM EQUATIONS HAVE CONVERGED

 AVERAGE MOMENT                      3.57       TIME AVG. MOMENT       1.59    
 LARGEST RESIDUAL MOMENT           -3.086E-06   AT NODE      19631   DOF  5
   INSTANCE: PANEL-1                                                                         
 LARGEST INCREMENT OF ROTATION      1.616E-02   AT NODE      16158   DOF  4
   INSTANCE: PANEL-1                                                                         
 LARGEST CORRECTION TO ROTATION    -6.235E-06   AT NODE      11476   DOF  4
   INSTANCE: PANEL-1                                                                         
          THE MOMENT    EQUILIBRIUM EQUATIONS HAVE CONVERGED
          ARC LENGTH INCREMENT MAY NOW INCREASE TO     5.06    

 ITERATION SUMMARY FOR THE INCREMENT:   4 TOTAL ITERATIONS, OF WHICH
   0 ARE SEVERE DISCONTINUITY ITERATIONS AND  4 ARE EQUILIBRIUM ITERATIONS.


                                INCREMENT     5 SUMMARY


     CURRENT LOAD PROPORTIONALITY FACTOR         0.4844    
     TOTAL ARC LENGTH    9.12    , INCREMENT OF ARC LENGTH    3.38    


  INCREMENT     6 STARTS. ATTEMPT NUMBER  1
 
	SYMMETRIC DIRECT SPARSE SOLVER RUNNING ON
 	1 HOST:        1 MPI RANK  x 1 THREAD
 	NUMBER OF EQUATIONS:     136656
 	NUMBER OF RHS:           2
 	NUMBER OF FLOPS:         1.438e+10

     CHECK POINT   START OF SOLVER    

     CHECK POINT  END OF SOLVER       

       ELAPSED USER TIME (SEC)      =   1.2000    
       ELAPSED SYSTEM TIME (SEC)    =  0.10000    
       ELAPSED TOTAL CPU TIME (SEC) =   1.3000    
       ELAPSED WALLCLOCK TIME (SEC) =          2

               CONVERGENCE CHECKS FOR EQUILIBRIUM ITERATION     1


 AVERAGE FORCE                      1.963E+03   TIME AVG. FORCE        768.    
 LARGEST RESIDUAL FORCE             1.478E+06   AT NODE      22801   DOF  1
   INSTANCE: PANEL-1                                                                         
 LARGEST INCREMENT OF DISP.         1.448E-02   AT NODE      11401   DOF  3
   INSTANCE: PANEL-1                                                                         
 LARGEST CORRECTION TO DISP.        1.448E-02   AT NODE      11401   DOF  3
   INSTANCE: PANEL-1                                                                         
          FORCE     EQUILIBRIUM NOT ACHIEVED WITHIN TOLERANCE.

 AVERAGE MOMENT                      6.01       TIME AVG. MOMENT       2.33    
 LARGEST RESIDUAL MOMENT             2.29       AT NODE      17213   DOF  4
   INSTANCE: PANEL-1                                                                         
 LARGEST INCREMENT OF ROTATION     -2.666E-02   AT NODE       5587   DOF  4
   INSTANCE: PANEL-1                                                                         
 LARGEST CORRECTION TO ROTATION    -2.666E-02   AT NODE       5587   DOF  4
   INSTANCE: PANEL-1                                                                         
          MOMENT    EQUILIBRIUM NOT ACHIEVED WITHIN TOLERANCE.
 
	SYMMETRIC DIRECT SPARSE SOLVER RUNNING ON
 	1 HOST:        1 MPI RANK  x 1 THREAD
 	NUMBER OF EQUATIONS:     136656
 	NUMBER OF RHS:           2
 	NUMBER OF FLOPS:         1.438e+10

     CHECK POINT   START OF SOLVER    

     CHECK POINT  END OF SOLVER       

       ELAPSED USER TIME (SEC)      =   1.1000    
       ELAPSED SYSTEM TIME (SEC)    =  0.10000    
       ELAPSED TOTAL CPU TIME (SEC) =   1.2000    
       ELAPSED WALLCLOCK TIME (SEC) =          1

               CONVERGENCE CHECKS FOR EQUILIBRIUM ITERATION     2


 AVERAGE FORCE                      1.636E+03   TIME AVG. FORCE        714.    
 LARGEST RESIDUAL FORCE             9.380E+03   AT NODE      22801   DOF  1
   INSTANCE: PANEL-1                                                                         
 LARGEST INCREMENT OF DISP.         1.430E-02   AT NODE      11408   DOF  3
   INSTANCE: PANEL-1                                                                         
 LARGEST CORRECTION TO DISP.        6.891E-04   AT NODE      20100   DOF  3
   INSTANCE: PANEL-1                                                                         
          FORCE     EQUILIBRIUM NOT ACHIEVED WITHIN TOLERANCE.

 AVERAGE MOMENT                      6.09       TIME AVG. MOMENT       2.34    
 LARGEST RESIDUAL MOMENT            0.189       AT NODE      19028   DOF  4
   INSTANCE: PANEL-1                                                                         
 LARGEST INCREMENT OF ROTATION     -2.827E-02   AT NODE      17969   DOF  4
   INSTANCE: PANEL-1                                                                         
 LARGEST CORRECTION TO ROTATION     3.515E-03   AT NODE      20235   DOF  4
   INSTANCE: PANEL-1                                                                         
          MOMENT    EQUILIBRIUM NOT ACHIEVED WITHIN TOLERANCE.
 
	SYMMETRIC DIRECT SPARSE SOLVER RUNNING ON
 	1 HOST:        1 MPI RANK  x 1 THREAD
 	NUMBER OF EQUATIONS:     136656
 	NUMBER OF RHS:           2
 	NUMBER OF FLOPS:         1.438e+10

     CHECK POINT   START OF SOLVER    

     CHECK POINT  END OF SOLVER       

       ELAPSED USER TIME (SEC)      =   1.2000    
       ELAPSED SYSTEM TIME (SEC)    =   0.0000    
       ELAPSED TOTAL CPU TIME (SEC) =   1.2000    
       ELAPSED WALLCLOCK TIME (SEC) =          1

               CONVERGENCE CHECKS FOR EQUILIBRIUM ITERATION     3


 AVERAGE FORCE                      1.591E+03   TIME AVG. FORCE        706.    
 LARGEST RESIDUAL FORCE             3.174E+03   AT NODE      22801   DOF  1
   INSTANCE: PANEL-1                                                                         
 LARGEST INCREMENT OF DISP.         1.423E-02   AT NODE      11391   DOF  3
   INSTANCE: PANEL-1                                                                         
 LARGEST CORRECTION TO DISP.        3.528E-04   AT NODE       2852   DOF  3
   INSTANCE: PANEL-1                                                                         
          FORCE     EQUILIBRIUM NOT ACHIEVED WITHIN TOLERANCE.

 AVERAGE MOMENT                      6.15       TIME AVG. MOMENT       2.35    
 LARGEST RESIDUAL MOMENT            8.483E-03   AT NODE      20837   DOF  5
   INSTANCE: PANEL-1                                                                         
 LARGEST INCREMENT OF ROTATION     -2.961E-02   AT NODE       4681   DOF  4
   INSTANCE: PANEL-1                                                                         
 LARGEST CORRECTION TO ROTATION     1.817E-03   AT NODE      19782   DOF  4
   INSTANCE: PANEL-1                                                                         
 ESTIMATE OF ROTATION CORRECTION    8.177E-05
 MOMENT    EQUILIB. ACCEPTED BASED ON SMALL RESIDUAL AND ESTIMATED CORRECTION
 
	SYMMETRIC DIRECT SPARSE SOLVER RUNNING ON
 	1 HOST:        1 MPI RANK  x 1 THREAD
 	NUMBER OF EQUATIONS:     136656
 	NUMBER OF RHS:           2
 	NUMBER OF FLOPS:         1.438e+10

     CHECK POINT   START OF SOLVER    

     CHECK POINT  END OF SOLVER       

       ELAPSED USER TIME (SEC)      =   1.2000    
       ELAPSED SYSTEM TIME (SEC)    =  0.10000    
       ELAPSED TOTAL CPU TIME (SEC) =   1.3000    
       ELAPSED WALLCLOCK TIME (SEC) =          1

               CONVERGENCE CHECKS FOR EQUILIBRIUM ITERATION     4


 AVERAGE FORCE                      1.592E+03   TIME AVG. FORCE        706.    
 LARGEST RESIDUAL FORCE              3.02       AT NODE      22801   DOF  1
   INSTANCE: PANEL-1                                                                         
 LARGEST INCREMENT OF DISP.         1.423E-02   AT NODE      11391   DOF  3
   INSTANCE: PANEL-1                                                                         
 LARGEST CORRECTION TO DISP.       -1.019E-05   AT NODE       2439   DOF  3
   INSTANCE: PANEL-1                                                                         
          THE FORCE     EQUILIBRIUM EQUATIONS HAVE CONVERGED

 AVERAGE MOMENT                      6.15       TIME AVG. MOMENT       2.35    
 LARGEST RESIDUAL MOMENT           -7.312E-05   AT NODE      20537   DOF  5
   INSTANCE: PANEL-1                                                                         
 LARGEST INCREMENT OF ROTATION     -2.960E-02   AT NODE       4681   DOF  4
   INSTANCE: PANEL-1                                                                         
 LARGEST CORRECTION TO ROTATION    -5.103E-05   AT NODE        129   DOF  5
   INSTANCE: PANEL-1                                                                         
          THE MOMENT    EQUILIBRIUM EQUATIONS HAVE CONVERGED
          ARC LENGTH INCREMENT MAY NOW INCREASE TO     7.59    

 ITERATION SUMMARY FOR THE INCREMENT:   4 TOTAL ITERATIONS, OF WHICH
   0 ARE SEVERE DISCONTINUITY ITERATIONS AND  4 ARE EQUILIBRIUM ITERATIONS.


                                INCREMENT     6 SUMMARY


     CURRENT LOAD PROPORTIONALITY FACTOR         0.7594    
     TOTAL ARC LENGTH    14.2    , INCREMENT OF ARC LENGTH    5.06    


  INCREMENT     7 STARTS. ATTEMPT NUMBER  1
 
	SYMMETRIC DIRECT SPARSE SOLVER RUNNING ON
 	1 HOST:        1 MPI RANK  x 1 THREAD
 	NUMBER OF EQUATIONS:     136656
 	NUMBER OF RHS:           2
 	NUMBER OF FLOPS:         1.438e+10

     CHECK POINT   START OF SOLVER    

     CHECK POINT  END OF SOLVER       

       ELAPSED USER TIME (SEC)      =   1.2000    
       ELAPSED SYSTEM TIME (SEC)    =  0.10000    
       ELAPSED TOTAL CPU TIME (SEC) =   1.3000    
       ELAPSED WALLCLOCK TIME (SEC) =          1

               CONVERGENCE CHECKS FOR EQUILIBRIUM ITERATION     1


 AVERAGE FORCE                      4.179E+03   TIME AVG. FORCE       1.202E+03
 LARGEST RESIDUAL FORCE             4.130E+06   AT NODE      22801   DOF  1
   INSTANCE: PANEL-1                                                                         
 LARGEST INCREMENT OF DISP.         2.127E-02   AT NODE      11382   DOF  3
   INSTANCE: PANEL-1                                                                         
 LARGEST CORRECTION TO DISP.        2.127E-02   AT NODE      11382   DOF  3
   INSTANCE: PANEL-1                                                                         
          FORCE     EQUILIBRIUM NOT ACHIEVED WITHIN TOLERANCE.

 AVERAGE MOMENT                      10.4       TIME AVG. MOMENT       3.50    
 LARGEST RESIDUAL MOMENT            -12.7       AT NODE      18726   DOF  4
   INSTANCE: PANEL-1                                                                         
 LARGEST INCREMENT OF ROTATION     -4.851E-02   AT NODE       3926   DOF  4
   INSTANCE: PANEL-1                                                                         
 LARGEST CORRECTION TO ROTATION    -4.851E-02   AT NODE       3926   DOF  4
   INSTANCE: PANEL-1                                                                         
          MOMENT    EQUILIBRIUM NOT ACHIEVED WITHIN TOLERANCE.
 
	SYMMETRIC DIRECT SPARSE SOLVER RUNNING ON
 	1 HOST:        1 MPI RANK  x 1 THREAD
 	NUMBER OF EQUATIONS:     136656
 	NUMBER OF RHS:           2
 	NUMBER OF FLOPS:         1.438e+10

     CHECK POINT   START OF SOLVER    

     CHECK POINT  END OF SOLVER       

       ELAPSED USER TIME (SEC)      =   1.2000    
       ELAPSED SYSTEM TIME (SEC)    =  0.10000    
       ELAPSED TOTAL CPU TIME (SEC) =   1.3000    
       ELAPSED WALLCLOCK TIME (SEC) =          1

               CONVERGENCE CHECKS FOR EQUILIBRIUM ITERATION     2


 AVERAGE FORCE                      2.785E+03   TIME AVG. FORCE       1.003E+03
 LARGEST RESIDUAL FORCE             1.223E+04   AT NODE      22801   DOF  1
   INSTANCE: PANEL-1                                                                         
 LARGEST INCREMENT OF DISP.         2.138E-02   AT NODE      11377   DOF  3
   INSTANCE: PANEL-1                                                                         
 LARGEST CORRECTION TO DISP.        6.737E-04   AT NODE       1651   DOF  3
   INSTANCE: PANEL-1                                                                         
          FORCE     EQUILIBRIUM NOT ACHIEVED WITHIN TOLERANCE.

 AVERAGE MOMENT                      10.5       TIME AVG. MOMENT       3.51    
 LARGEST RESIDUAL MOMENT           -0.849       AT NODE      22512   DOF  5
   INSTANCE: PANEL-1                                                                         
 LARGEST INCREMENT OF ROTATION      4.999E-02   AT NODE      19329   DOF  4
   INSTANCE: PANEL-1                                                                         
 LARGEST CORRECTION TO ROTATION    -5.596E-03   AT NODE      21291   DOF  4
   INSTANCE: PANEL-1                                                                         
          MOMENT    EQUILIBRIUM NOT ACHIEVED WITHIN TOLERANCE.
 
	SYMMETRIC DIRECT SPARSE SOLVER RUNNING ON
 	1 HOST:        1 MPI RANK  x 1 THREAD
 	NUMBER OF EQUATIONS:     136656
 	NUMBER OF RHS:           2
 	NUMBER OF FLOPS:         1.438e+10

     CHECK POINT   START OF SOLVER    

     CHECK POINT  END OF SOLVER       

       ELAPSED USER TIME (SEC)      =   1.2000    
       ELAPSED SYSTEM TIME (SEC)    =  0.10000    
       ELAPSED TOTAL CPU TIME (SEC) =   1.3000    
       ELAPSED WALLCLOCK TIME (SEC) =          1

               CONVERGENCE CHECKS FOR EQUILIBRIUM ITERATION     3


 AVERAGE FORCE                      2.691E+03   TIME AVG. FORCE        990.    
 LARGEST RESIDUAL FORCE             9.832E+03   AT NODE      22801   DOF  1
   INSTANCE: PANEL-1                                                                         
 LARGEST INCREMENT OF DISP.         2.148E-02   AT NODE      11374   DOF  3
   INSTANCE: PANEL-1                                                                         
 LARGEST CORRECTION TO DISP.        1.139E-03   AT NODE      11455   DOF  3
   INSTANCE: PANEL-1                                                                         
          FORCE     EQUILIBRIUM NOT ACHIEVED WITHIN TOLERANCE.

 AVERAGE MOMENT                      10.6       TIME AVG. MOMENT       3.53    
 LARGEST RESIDUAL MOMENT            5.610E-02   AT NODE      21441   DOF  5
   INSTANCE: PANEL-1                                                                         
 LARGEST INCREMENT OF ROTATION      5.212E-02   AT NODE      19631   DOF  4
   INSTANCE: PANEL-1                                                                         
 LARGEST CORRECTION TO ROTATION    -4.334E-03   AT NODE      11476   DOF  4
   INSTANCE: PANEL-1                                                                         
          MOMENT    EQUILIBRIUM NOT ACHIEVED WITHIN TOLERANCE.
 
	SYMMETRIC DIRECT SPARSE SOLVER RUNNING ON
 	1 HOST:        1 MPI RANK  x 1 THREAD
 	NUMBER OF EQUATIONS:     136656
 	NUMBER OF RHS:           2
 	NUMBER OF FLOPS:         1.438e+10

     CHECK POINT   START OF SOLVER    

     CHECK POINT  END OF SOLVER       

       ELAPSED USER TIME (SEC)      =   1.3000    
       ELAPSED SYSTEM TIME (SEC)    =   0.0000    
       ELAPSED TOTAL CPU TIME (SEC) =   1.3000    
       ELAPSED WALLCLOCK TIME (SEC) =          1

               CONVERGENCE CHECKS FOR EQUILIBRIUM ITERATION     4


 AVERAGE FORCE                      2.700E+03   TIME AVG. FORCE        991.    
 LARGEST RESIDUAL FORCE             -10.1       AT NODE      11476   DOF  2
   INSTANCE: PANEL-1                                                                         
 LARGEST INCREMENT OF DISP.         2.149E-02   AT NODE      11375   DOF  3
   INSTANCE: PANEL-1                                                                         
 LARGEST CORRECTION TO DISP.       -1.563E-04   AT NODE      11457   DOF  3
   INSTANCE: PANEL-1                                                                         
          FORCE     EQUILIBRIUM NOT ACHIEVED WITHIN TOLERANCE.

 AVERAGE MOMENT                      10.6       TIME AVG. MOMENT       3.53    
 LARGEST RESIDUAL MOMENT            1.835E-03   AT NODE      11475   DOF  4
   INSTANCE: PANEL-1                                                                         
 LARGEST INCREMENT OF ROTATION     -5.218E-02   AT NODE      19781   DOF  4
   INSTANCE: PANEL-1                                                                         
 LARGEST CORRECTION TO ROTATION     6.653E-04   AT NODE      11476   DOF  4
   INSTANCE: PANEL-1                                                                         
 ESTIMATE OF ROTATION CORRECTION    2.177E-05
 MOMENT    EQUILIB. ACCEPTED BASED ON SMALL RESIDUAL AND ESTIMATED CORRECTION
 
	SYMMETRIC DIRECT SPARSE SOLVER RUNNING ON
 	1 HOST:        1 MPI RANK  x 1 THREAD
 	NUMBER OF EQUATIONS:     136656
 	NUMBER OF RHS:           2
 	NUMBER OF FLOPS:         1.438e+10

     CHECK POINT   START OF SOLVER    

     CHECK POINT  END OF SOLVER       

       ELAPSED USER TIME (SEC)      =   1.2000    
       ELAPSED SYSTEM TIME (SEC)    =   0.0000    
       ELAPSED TOTAL CPU TIME (SEC) =   1.2000    
       ELAPSED WALLCLOCK TIME (SEC) =          2

               CONVERGENCE CHECKS FOR EQUILIBRIUM ITERATION     5


 AVERAGE FORCE                      2.701E+03   TIME AVG. FORCE        991.    
 LARGEST RESIDUAL FORCE             4.407E-02   AT NODE      11326   DOF  2
   INSTANCE: PANEL-1                                                                         
 LARGEST INCREMENT OF DISP.         2.149E-02   AT NODE      11375   DOF  3
   INSTANCE: PANEL-1                                                                         
 LARGEST CORRECTION TO DISP.       -9.523E-06   AT NODE      11458   DOF  3
   INSTANCE: PANEL-1                                                                         
          THE FORCE     EQUILIBRIUM EQUATIONS HAVE CONVERGED

 AVERAGE MOMENT                      10.6       TIME AVG. MOMENT       3.53    
 LARGEST RESIDUAL MOMENT           -2.082E-05   AT NODE      22798   DOF  4
   INSTANCE: PANEL-1                                                                         
 LARGEST INCREMENT OF ROTATION      5.218E-02   AT NODE      19631   DOF  4
   INSTANCE: PANEL-1                                                                         
 LARGEST CORRECTION TO ROTATION     4.402E-05   AT NODE      11476   DOF  4
   INSTANCE: PANEL-1                                                                         
          THE MOMENT    EQUILIBRIUM EQUATIONS HAVE CONVERGED

 ITERATION SUMMARY FOR THE INCREMENT:   5 TOTAL ITERATIONS, OF WHICH
   0 ARE SEVERE DISCONTINUITY ITERATIONS AND  5 ARE EQUILIBRIUM ITERATIONS.


                                INCREMENT     7 SUMMARY


     CURRENT LOAD PROPORTIONALITY FACTOR          1.216    
     TOTAL ARC LENGTH    21.8    , INCREMENT OF ARC LENGTH    7.59    


  INCREMENT     8 STARTS. ATTEMPT NUMBER  1
 
	SYMMETRIC DIRECT SPARSE SOLVER RUNNING ON
 	1 HOST:        1 MPI RANK  x 1 THREAD
 	NUMBER OF EQUATIONS:     136656
 	NUMBER OF RHS:           2
 	NUMBER OF FLOPS:         1.438e+10

     CHECK POINT   START OF SOLVER    

     CHECK POINT  END OF SOLVER       

       ELAPSED USER TIME (SEC)      =   1.2000    
       ELAPSED SYSTEM TIME (SEC)    =  0.10000    
       ELAPSED TOTAL CPU TIME (SEC) =   1.3000    
       ELAPSED WALLCLOCK TIME (SEC) =          1

               CONVERGENCE CHECKS FOR EQUILIBRIUM ITERATION     1


 AVERAGE FORCE                      5.524E+03   TIME AVG. FORCE       1.558E+03
 LARGEST RESIDUAL FORCE             4.526E+06   AT NODE      22801   DOF  1
   INSTANCE: PANEL-1                                                                         
 LARGEST INCREMENT OF DISP.         2.153E-02   AT NODE      11433   DOF  3
   INSTANCE: PANEL-1                                                                         
 LARGEST CORRECTION TO DISP.        2.153E-02   AT NODE      11433   DOF  3
   INSTANCE: PANEL-1                                                                         
          FORCE     EQUILIBRIUM NOT ACHIEVED WITHIN TOLERANCE.

 AVERAGE MOMENT                      15.3       TIME AVG. MOMENT       5.00    
 LARGEST RESIDUAL MOMENT             20.3       AT NODE      20840   DOF  5
   INSTANCE: PANEL-1                                                                         
 LARGEST INCREMENT OF ROTATION     -5.566E-02   AT NODE       2567   DOF  4
   INSTANCE: PANEL-1                                                                         
 LARGEST CORRECTION TO ROTATION    -5.566E-02   AT NODE       2567   DOF  4
   INSTANCE: PANEL-1                                                                         
          MOMENT    EQUILIBRIUM NOT ACHIEVED WITHIN TOLERANCE.
 
	SYMMETRIC DIRECT SPARSE SOLVER RUNNING ON
 	1 HOST:        1 MPI RANK  x 1 THREAD
 	NUMBER OF EQUATIONS:     136656
 	NUMBER OF RHS:           2
 	NUMBER OF FLOPS:         1.438e+10

     CHECK POINT   START OF SOLVER    

     CHECK POINT  END OF SOLVER       

       ELAPSED USER TIME (SEC)      =   1.2000    
       ELAPSED SYSTEM TIME (SEC)    =   0.0000    
       ELAPSED TOTAL CPU TIME (SEC) =   1.2000    
       ELAPSED WALLCLOCK TIME (SEC) =          1

               CONVERGENCE CHECKS FOR EQUILIBRIUM ITERATION     2


 AVERAGE FORCE                      4.062E+03   TIME AVG. FORCE       1.375E+03
 LARGEST RESIDUAL FORCE             5.592E+03   AT NODE      22801   DOF  1
   INSTANCE: PANEL-1                                                                         
 LARGEST INCREMENT OF DISP.         2.139E-02   AT NODE      11434   DOF  3
   INSTANCE: PANEL-1                                                                         
 LARGEST CORRECTION TO DISP.        4.271E-04   AT NODE      21737   DOF  3
   INSTANCE: PANEL-1                                                                         
          FORCE     EQUILIBRIUM NOT ACHIEVED WITHIN TOLERANCE.

 AVERAGE MOMENT                      15.3       TIME AVG. MOMENT       5.00    
 LARGEST RESIDUAL MOMENT            -1.05       AT NODE      22642   DOF  5
   INSTANCE: PANEL-1                                                                         
 LARGEST INCREMENT OF ROTATION      5.728E-02   AT NODE      20537   DOF  4
   INSTANCE: PANEL-1                                                                         
 LARGEST CORRECTION TO ROTATION    -5.375E-03   AT NODE      21744   DOF  4
   INSTANCE: PANEL-1                                                                         
          MOMENT    EQUILIBRIUM NOT ACHIEVED WITHIN TOLERANCE.
 
	SYMMETRIC DIRECT SPARSE SOLVER RUNNING ON
 	1 HOST:        1 MPI RANK  x 1 THREAD
 	NUMBER OF EQUATIONS:     136656
 	NUMBER OF RHS:           2
 	NUMBER OF FLOPS:         1.438e+10

     CHECK POINT   START OF SOLVER    

     CHECK POINT  END OF SOLVER       

       ELAPSED USER TIME (SEC)      =   1.3000    
       ELAPSED SYSTEM TIME (SEC)    =  0.10000    
       ELAPSED TOTAL CPU TIME (SEC) =   1.4000    
       ELAPSED WALLCLOCK TIME (SEC) =          1

               CONVERGENCE CHECKS FOR EQUILIBRIUM ITERATION     3


 AVERAGE FORCE                      3.997E+03   TIME AVG. FORCE       1.367E+03
 LARGEST RESIDUAL FORCE             2.179E+03   AT NODE      22801   DOF  1
   INSTANCE: PANEL-1                                                                         
 LARGEST INCREMENT OF DISP.         2.155E-02   AT NODE      11365   DOF  3
   INSTANCE: PANEL-1                                                                         
 LARGEST CORRECTION TO DISP.        1.076E-03   AT NODE      11343   DOF  3
   INSTANCE: PANEL-1                                                                         
          FORCE     EQUILIBRIUM NOT ACHIEVED WITHIN TOLERANCE.

 AVERAGE MOMENT                      15.4       TIME AVG. MOMENT       5.02    
 LARGEST RESIDUAL MOMENT            3.262E-02   AT NODE      13737   DOF  5
   INSTANCE: PANEL-1                                                                         
 LARGEST INCREMENT OF ROTATION      5.844E-02   AT NODE       2115   DOF  4
   INSTANCE: PANEL-1                                                                         
 LARGEST CORRECTION TO ROTATION     5.042E-03   AT NODE      11326   DOF  4
   INSTANCE: PANEL-1                                                                         
          MOMENT    EQUILIBRIUM NOT ACHIEVED WITHIN TOLERANCE.
 
	SYMMETRIC DIRECT SPARSE SOLVER RUNNING ON
 	1 HOST:        1 MPI RANK  x 1 THREAD
 	NUMBER OF EQUATIONS:     136656
 	NUMBER OF RHS:           2
 	NUMBER OF FLOPS:         1.438e+10

     CHECK POINT   START OF SOLVER    

     CHECK POINT  END OF SOLVER       

       ELAPSED USER TIME (SEC)      =   1.1000    
       ELAPSED SYSTEM TIME (SEC)    =  0.10000    
       ELAPSED TOTAL CPU TIME (SEC) =   1.2000    
       ELAPSED WALLCLOCK TIME (SEC) =          1

               CONVERGENCE CHECKS FOR EQUILIBRIUM ITERATION     4


 AVERAGE FORCE                      4.003E+03   TIME AVG. FORCE       1.368E+03
 LARGEST RESIDUAL FORCE              15.6       AT NODE      11326   DOF  2
   INSTANCE: PANEL-1                                                                         
 LARGEST INCREMENT OF DISP.         2.154E-02   AT NODE      11366   DOF  3
   INSTANCE: PANEL-1                                                                         
 LARGEST CORRECTION TO DISP.       -1.560E-04   AT NODE      11342   DOF  3
   INSTANCE: PANEL-1                                                                         
          FORCE     EQUILIBRIUM NOT ACHIEVED WITHIN TOLERANCE.

 AVERAGE MOMENT                      15.4       TIME AVG. MOMENT       5.02    
 LARGEST RESIDUAL MOMENT           -3.310E-03   AT NODE      11327   DOF  4
   INSTANCE: PANEL-1                                                                         
 LARGEST INCREMENT OF ROTATION     -5.848E-02   AT NODE       2265   DOF  4
   INSTANCE: PANEL-1                                                                         
 LARGEST CORRECTION TO ROTATION    -8.321E-04   AT NODE      11326   DOF  4
   INSTANCE: PANEL-1                                                                         
 ESTIMATE OF ROTATION CORRECTION    8.444E-05
 MOMENT    EQUILIB. ACCEPTED BASED ON SMALL RESIDUAL AND ESTIMATED CORRECTION
 
	SYMMETRIC DIRECT SPARSE SOLVER RUNNING ON
 	1 HOST:        1 MPI RANK  x 1 THREAD
 	NUMBER OF EQUATIONS:     136656
 	NUMBER OF RHS:           2
 	NUMBER OF FLOPS:         1.438e+10

     CHECK POINT   START OF SOLVER    

     CHECK POINT  END OF SOLVER       

       ELAPSED USER TIME (SEC)      =   1.2000    
       ELAPSED SYSTEM TIME (SEC)    =   0.0000    
       ELAPSED TOTAL CPU TIME (SEC) =   1.2000    
       ELAPSED WALLCLOCK TIME (SEC) =          1

               CONVERGENCE CHECKS FOR EQUILIBRIUM ITERATION     5


 AVERAGE FORCE                      4.004E+03   TIME AVG. FORCE       1.368E+03
 LARGEST RESIDUAL FORCE             0.167       AT NODE      11326   DOF  2
   INSTANCE: PANEL-1                                                                         
 LARGEST INCREMENT OF DISP.         2.154E-02   AT NODE      11436   DOF  3
   INSTANCE: PANEL-1                                                                         
 LARGEST CORRECTION TO DISP.       -1.517E-05   AT NODE      11341   DOF  3
   INSTANCE: PANEL-1                                                                         
          THE FORCE     EQUILIBRIUM EQUATIONS HAVE CONVERGED

 AVERAGE MOMENT                      15.4       TIME AVG. MOMENT       5.02    
 LARGEST RESIDUAL MOMENT            7.567E-05   AT NODE      13566   DOF  6
   INSTANCE: PANEL-1                                                                         
 LARGEST INCREMENT OF ROTATION      5.848E-02   AT NODE       2115   DOF  4
   INSTANCE: PANEL-1                                                                         
 LARGEST CORRECTION TO ROTATION    -8.613E-05   AT NODE      11326   DOF  4
   INSTANCE: PANEL-1                                                                         
          THE MOMENT    EQUILIBRIUM EQUATIONS HAVE CONVERGED

 ITERATION SUMMARY FOR THE INCREMENT:   5 TOTAL ITERATIONS, OF WHICH
   0 ARE SEVERE DISCONTINUITY ITERATIONS AND  5 ARE EQUILIBRIUM ITERATIONS.


                                INCREMENT     8 SUMMARY


     CURRENT LOAD PROPORTIONALITY FACTOR          1.712    
     TOTAL ARC LENGTH    29.4    , INCREMENT OF ARC LENGTH    7.59    


  INCREMENT     9 STARTS. ATTEMPT NUMBER  1
 
	SYMMETRIC DIRECT SPARSE SOLVER RUNNING ON
 	1 HOST:        1 MPI RANK  x 1 THREAD
 	NUMBER OF EQUATIONS:     136656
 	NUMBER OF RHS:           2
 	NUMBER OF FLOPS:         1.438e+10

     CHECK POINT   START OF SOLVER    

     CHECK POINT  END OF SOLVER       

       ELAPSED USER TIME (SEC)      =   1.2000    
       ELAPSED SYSTEM TIME (SEC)    =  0.10000    
       ELAPSED TOTAL CPU TIME (SEC) =   1.3000    
       ELAPSED WALLCLOCK TIME (SEC) =          1

               CONVERGENCE CHECKS FOR EQUILIBRIUM ITERATION     1


 AVERAGE FORCE                      7.021E+03   TIME AVG. FORCE       1.996E+03
 LARGEST RESIDUAL FORCE             4.745E+06   AT NODE      22801   DOF  1
   INSTANCE: PANEL-1                                                                         
 LARGEST INCREMENT OF DISP.         2.131E-02   AT NODE      11439   DOF  3
   INSTANCE: PANEL-1                                                                         
 LARGEST CORRECTION TO DISP.        2.131E-02   AT NODE      11439   DOF  3
   INSTANCE: PANEL-1                                                                         
          FORCE     EQUILIBRIUM NOT ACHIEVED WITHIN TOLERANCE.

 AVERAGE MOMENT                      20.5       TIME AVG. MOMENT       6.74    
 LARGEST RESIDUAL MOMENT             34.7       AT NODE      21293   DOF  5
   INSTANCE: PANEL-1                                                                         
 LARGEST INCREMENT OF ROTATION     -6.114E-02   AT NODE       1812   DOF  4
   INSTANCE: PANEL-1                                                                         
 LARGEST CORRECTION TO ROTATION    -6.114E-02   AT NODE       1812   DOF  4
   INSTANCE: PANEL-1                                                                         
          MOMENT    EQUILIBRIUM NOT ACHIEVED WITHIN TOLERANCE.
 
	SYMMETRIC DIRECT SPARSE SOLVER RUNNING ON
 	1 HOST:        1 MPI RANK  x 1 THREAD
 	NUMBER OF EQUATIONS:     136656
 	NUMBER OF RHS:           2
 	NUMBER OF FLOPS:         1.438e+10

     CHECK POINT   START OF SOLVER    

     CHECK POINT  END OF SOLVER       

       ELAPSED USER TIME (SEC)      =   1.1000    
       ELAPSED SYSTEM TIME (SEC)    =  0.10000    
       ELAPSED TOTAL CPU TIME (SEC) =   1.2000    
       ELAPSED WALLCLOCK TIME (SEC) =          2

               CONVERGENCE CHECKS FOR EQUILIBRIUM ITERATION     2


 AVERAGE FORCE                      5.543E+03   TIME AVG. FORCE       1.832E+03
 LARGEST RESIDUAL FORCE             1.425E+03   AT NODE      22801   DOF  1
   INSTANCE: PANEL-1                                                                         
 LARGEST INCREMENT OF DISP.         2.106E-02   AT NODE      11440   DOF  3
   INSTANCE: PANEL-1                                                                         
 LARGEST CORRECTION TO DISP.        4.202E-04   AT NODE      22499   DOF  1
   INSTANCE: PANEL-1                                                                         
          FORCE     EQUILIBRIUM NOT ACHIEVED WITHIN TOLERANCE.

 AVERAGE MOMENT                      20.6       TIME AVG. MOMENT       6.75    
 LARGEST RESIDUAL MOMENT            -1.03       AT NODE      22644   DOF  5
   INSTANCE: PANEL-1                                                                         
 LARGEST INCREMENT OF ROTATION     -6.288E-02   AT NODE       1661   DOF  4
   INSTANCE: PANEL-1                                                                         
 LARGEST CORRECTION TO ROTATION     5.127E-03   AT NODE          6   DOF  5
   INSTANCE: PANEL-1                                                                         
          MOMENT    EQUILIBRIUM NOT ACHIEVED WITHIN TOLERANCE.
 
	SYMMETRIC DIRECT SPARSE SOLVER RUNNING ON
 	1 HOST:        1 MPI RANK  x 1 THREAD
 	NUMBER OF EQUATIONS:     136656
 	NUMBER OF RHS:           2
 	NUMBER OF FLOPS:         1.438e+10

     CHECK POINT   START OF SOLVER    

     CHECK POINT  END OF SOLVER       

       ELAPSED USER TIME (SEC)      =   1.2000    
       ELAPSED SYSTEM TIME (SEC)    =  0.10000    
       ELAPSED TOTAL CPU TIME (SEC) =   1.3000    
       ELAPSED WALLCLOCK TIME (SEC) =          2
 

 ***WARNING: THE SYSTEM MATRIX HAS 4 NEGATIVE EIGENVALUES.
             EXPLANATIONS ARE SUGGESTED AFTER THE FIRST OCCURRENCE OF THIS MESSAGE.

               CONVERGENCE CHECKS FOR EQUILIBRIUM ITERATION     3


 AVERAGE FORCE                      5.506E+03   TIME AVG. FORCE       1.828E+03
 LARGEST RESIDUAL FORCE              821.       AT NODE       8155   DOF  2
   INSTANCE: PANEL-1                                                                         
 LARGEST INCREMENT OF DISP.         2.127E-02   AT NODE      11441   DOF  3
   INSTANCE: PANEL-1                                                                         
 LARGEST CORRECTION TO DISP.        9.207E-04   AT NODE       8017   DOF  3
   INSTANCE: PANEL-1                                                                         
          FORCE     EQUILIBRIUM NOT ACHIEVED WITHIN TOLERANCE.

 AVERAGE MOMENT                      20.7       TIME AVG. MOMENT       6.76    
 LARGEST RESIDUAL MOMENT            6.716E-02   AT NODE       9208   DOF  5
   INSTANCE: PANEL-1                                                                         
 LARGEST INCREMENT OF ROTATION     -6.361E-02   AT NODE       1661   DOF  4
   INSTANCE: PANEL-1                                                                         
 LARGEST CORRECTION TO ROTATION     6.083E-03   AT NODE       8155   DOF  4
   INSTANCE: PANEL-1                                                                         
          MOMENT    EQUILIBRIUM NOT ACHIEVED WITHIN TOLERANCE.
 
	SYMMETRIC DIRECT SPARSE SOLVER RUNNING ON
 	1 HOST:        1 MPI RANK  x 1 THREAD
 	NUMBER OF EQUATIONS:     136656
 	NUMBER OF RHS:           2
 	NUMBER OF FLOPS:         1.438e+10

     CHECK POINT   START OF SOLVER    

     CHECK POINT  END OF SOLVER       

       ELAPSED USER TIME (SEC)      =   1.2000    
       ELAPSED SYSTEM TIME (SEC)    =  0.10000    
       ELAPSED TOTAL CPU TIME (SEC) =   1.3000    
       ELAPSED WALLCLOCK TIME (SEC) =          2
 

 ***WARNING: THE SYSTEM MATRIX HAS 2 NEGATIVE EIGENVALUES.
             EXPLANATIONS ARE SUGGESTED AFTER THE FIRST OCCURRENCE OF THIS MESSAGE.

               CONVERGENCE CHECKS FOR EQUILIBRIUM ITERATION     4


 AVERAGE FORCE                      5.523E+03   TIME AVG. FORCE       1.829E+03
 LARGEST RESIDUAL FORCE             -793.       AT NODE      11476   DOF  2
   INSTANCE: PANEL-1                                                                         
 LARGEST INCREMENT OF DISP.         2.134E-02   AT NODE      11362   DOF  3
   INSTANCE: PANEL-1                                                                         
 LARGEST CORRECTION TO DISP.       -9.036E-04   AT NODE      11339   DOF  3
   INSTANCE: PANEL-1                                                                         
          FORCE     EQUILIBRIUM NOT ACHIEVED WITHIN TOLERANCE.

 AVERAGE MOMENT                      20.7       TIME AVG. MOMENT       6.76    
 LARGEST RESIDUAL MOMENT            4.528E-02   AT NODE      12385   DOF  5
   INSTANCE: PANEL-1                                                                         
 LARGEST INCREMENT OF ROTATION     -6.366E-02   AT NODE       1661   DOF  4
   INSTANCE: PANEL-1                                                                         
 LARGEST CORRECTION TO ROTATION    -5.970E-03   AT NODE      11326   DOF  4
   INSTANCE: PANEL-1                                                                         
          MOMENT    EQUILIBRIUM NOT ACHIEVED WITHIN TOLERANCE.
 
	SYMMETRIC DIRECT SPARSE SOLVER RUNNING ON
 	1 HOST:        1 MPI RANK  x 1 THREAD
 	NUMBER OF EQUATIONS:     136656
 	NUMBER OF RHS:           2
 	NUMBER OF FLOPS:         1.438e+10

     CHECK POINT   START OF SOLVER    

     CHECK POINT  END OF SOLVER       

       ELAPSED USER TIME (SEC)      =   1.2000    
       ELAPSED SYSTEM TIME (SEC)    =   0.0000    
       ELAPSED TOTAL CPU TIME (SEC) =   1.2000    
       ELAPSED WALLCLOCK TIME (SEC) =          1
 

 ***WARNING: THE SYSTEM MATRIX HAS 4 NEGATIVE EIGENVALUES.
             EXPLANATIONS ARE SUGGESTED AFTER THE FIRST OCCURRENCE OF THIS MESSAGE.

               CONVERGENCE CHECKS FOR EQUILIBRIUM ITERATION     5


 AVERAGE FORCE                      5.518E+03   TIME AVG. FORCE       1.829E+03
 LARGEST RESIDUAL FORCE              179.       AT NODE      11326   DOF  2
   INSTANCE: PANEL-1                                                                         
 LARGEST INCREMENT OF DISP.         2.130E-02   AT NODE      11362   DOF  3
   INSTANCE: PANEL-1                                                                         
 LARGEST CORRECTION TO DISP.        4.175E-04   AT NODE      11338   DOF  3
   INSTANCE: PANEL-1                                                                         
          FORCE     EQUILIBRIUM NOT ACHIEVED WITHIN TOLERANCE.

 AVERAGE MOMENT                      20.7       TIME AVG. MOMENT       6.76    
 LARGEST RESIDUAL MOMENT            1.003E-02   AT NODE      12532   DOF  5
   INSTANCE: PANEL-1                                                                         
 LARGEST INCREMENT OF ROTATION      6.364E-02   AT NODE       1511   DOF  4
   INSTANCE: PANEL-1                                                                         
 LARGEST CORRECTION TO ROTATION     2.835E-03   AT NODE      11326   DOF  4
   INSTANCE: PANEL-1                                                                         
 ESTIMATE OF ROTATION CORRECTION    6.276E-04
 MOMENT    EQUILIB. ACCEPTED BASED ON SMALL RESIDUAL AND ESTIMATED CORRECTION
 
	SYMMETRIC DIRECT SPARSE SOLVER RUNNING ON
 	1 HOST:        1 MPI RANK  x 1 THREAD
 	NUMBER OF EQUATIONS:     136656
 	NUMBER OF RHS:           2
 	NUMBER OF FLOPS:         1.438e+10

     CHECK POINT   START OF SOLVER    

     CHECK POINT  END OF SOLVER       

       ELAPSED USER TIME (SEC)      =   1.3000    
       ELAPSED SYSTEM TIME (SEC)    =   0.0000    
       ELAPSED TOTAL CPU TIME (SEC) =   1.3000    
       ELAPSED WALLCLOCK TIME (SEC) =          1
 

 ***WARNING: THE SYSTEM MATRIX HAS 4 NEGATIVE EIGENVALUES.
             EXPLANATIONS ARE SUGGESTED AFTER THE FIRST OCCURRENCE OF THIS MESSAGE.

               CONVERGENCE CHECKS FOR EQUILIBRIUM ITERATION     6


 AVERAGE FORCE                      5.518E+03   TIME AVG. FORCE       1.829E+03
 LARGEST RESIDUAL FORCE             0.161       AT NODE      11326   DOF  2
   INSTANCE: PANEL-1                                                                         
[...]
 LARGEST INCREMENT OF DISP.         3.393E-03   AT NODE      15223   DOF  3
   INSTANCE: PANEL-1                                                                         
 LARGEST CORRECTION TO DISP.       -2.407E-04   AT NODE      11453   DOF  3
   INSTANCE: PANEL-1                                                                         
 ESTIMATE OF DISP.    CORRECTION    1.092E-06
 FORCE     EQUILIB. ACCEPTED BASED ON SMALL RESIDUAL AND ESTIMATED CORRECTION

 AVERAGE MOMENT                      110.       TIME AVG. MOMENT       97.0    
 LARGEST RESIDUAL MOMENT            -1.92       AT NODE      14949   DOF  5
   INSTANCE: PANEL-1                                                                         
 LARGEST INCREMENT OF ROTATION     -4.842E-02   AT NODE      14949   DOF  4
   INSTANCE: PANEL-1                                                                         
 LARGEST CORRECTION TO ROTATION     2.125E-03   AT NODE      14946   DOF  5
   INSTANCE: PANEL-1                                                                         
          MOMENT    EQUILIBRIUM NOT ACHIEVED WITHIN TOLERANCE.
 
	SYMMETRIC DIRECT SPARSE SOLVER RUNNING ON
 	1 HOST:        1 MPI RANK  x 1 THREAD
 	NUMBER OF EQUATIONS:     136656
 	NUMBER OF RHS:           2
 	NUMBER OF FLOPS:         1.438e+10

     CHECK POINT   START OF SOLVER    

     CHECK POINT  END OF SOLVER       

       ELAPSED USER TIME (SEC)      =   1.2000    
       ELAPSED SYSTEM TIME (SEC)    =  0.10000    
       ELAPSED TOTAL CPU TIME (SEC) =   1.3000    
       ELAPSED WALLCLOCK TIME (SEC) =          1
 

 ***WARNING: THE SYSTEM MATRIX HAS 2 NEGATIVE EIGENVALUES.
             EXPLANATIONS ARE SUGGESTED AFTER THE FIRST OCCURRENCE OF THIS MESSAGE.

               CONVERGENCE CHECKS FOR EQUILIBRIUM ITERATION     3


 AVERAGE FORCE                      2.069E+04   TIME AVG. FORCE       1.892E+04
 LARGEST RESIDUAL FORCE            -5.255E+05   AT NODE      15100   DOF  2
   INSTANCE: PANEL-1                                                                         
 LARGEST INCREMENT OF DISP.         8.265E-03   AT NODE      11457   DOF  3
   INSTANCE: PANEL-1                                                                         
 LARGEST CORRECTION TO DISP.        1.069E-02   AT NODE      11458   DOF  3
   INSTANCE: PANEL-1                                                                         
          FORCE     EQUILIBRIUM NOT ACHIEVED WITHIN TOLERANCE.

 AVERAGE MOMENT                      112.       TIME AVG. MOMENT       97.1    
 LARGEST RESIDUAL MOMENT            -249.       AT NODE      15099   DOF  4
   INSTANCE: PANEL-1                                                                         
 LARGEST INCREMENT OF ROTATION      0.117       AT NODE      15100   DOF  4
   INSTANCE: PANEL-1                                                                         
 LARGEST CORRECTION TO ROTATION     0.165       AT NODE      15100   DOF  4
   INSTANCE: PANEL-1                                                                         
          MOMENT    EQUILIBRIUM NOT ACHIEVED WITHIN TOLERANCE.
 
	SYMMETRIC DIRECT SPARSE SOLVER RUNNING ON
 	1 HOST:        1 MPI RANK  x 1 THREAD
 	NUMBER OF EQUATIONS:     136656
 	NUMBER OF RHS:           2
 	NUMBER OF FLOPS:         1.438e+10

     CHECK POINT   START OF SOLVER    

     CHECK POINT  END OF SOLVER       

       ELAPSED USER TIME (SEC)      =   1.2000    
       ELAPSED SYSTEM TIME (SEC)    =  0.10000    
       ELAPSED TOTAL CPU TIME (SEC) =   1.3000    
       ELAPSED WALLCLOCK TIME (SEC) =          1

               CONVERGENCE CHECKS FOR EQUILIBRIUM ITERATION     4


 AVERAGE FORCE                      2.031E+04   TIME AVG. FORCE       1.891E+04
 LARGEST RESIDUAL FORCE            -7.455E+03   AT NODE      15099   DOF  2
   INSTANCE: PANEL-1                                                                         
 LARGEST INCREMENT OF DISP.         7.825E-03   AT NODE      11459   DOF  3
   INSTANCE: PANEL-1                                                                         
 LARGEST CORRECTION TO DISP.       -2.003E-03   AT NODE      11453   DOF  3
   INSTANCE: PANEL-1                                                                         
          FORCE     EQUILIBRIUM NOT ACHIEVED WITHIN TOLERANCE.

 AVERAGE MOMENT                      111.       TIME AVG. MOMENT       97.0    
 LARGEST RESIDUAL MOMENT            -36.8       AT NODE      15250   DOF  4
   INSTANCE: PANEL-1                                                                         
 LARGEST INCREMENT OF ROTATION      0.113       AT NODE      14949   DOF  4
   INSTANCE: PANEL-1                                                                         
 LARGEST CORRECTION TO ROTATION     2.292E-02   AT NODE      11457   DOF  4
   INSTANCE: PANEL-1                                                                         
          MOMENT    EQUILIBRIUM NOT ACHIEVED WITHIN TOLERANCE.
 
	SYMMETRIC DIRECT SPARSE SOLVER RUNNING ON
 	1 HOST:        1 MPI RANK  x 1 THREAD
 	NUMBER OF EQUATIONS:     136656
 	NUMBER OF RHS:           2
 	NUMBER OF FLOPS:         1.438e+10

     CHECK POINT   START OF SOLVER    

     CHECK POINT  END OF SOLVER       

       ELAPSED USER TIME (SEC)      =   1.2000    
       ELAPSED SYSTEM TIME (SEC)    =  0.10000    
       ELAPSED TOTAL CPU TIME (SEC) =   1.3000    
       ELAPSED WALLCLOCK TIME (SEC) =          1

               CONVERGENCE CHECKS FOR EQUILIBRIUM ITERATION     5


 AVERAGE FORCE                      2.041E+04   TIME AVG. FORCE       1.891E+04
 LARGEST RESIDUAL FORCE            -2.383E+03   AT NODE      15402   DOF  2
   INSTANCE: PANEL-1                                                                         
 LARGEST INCREMENT OF DISP.         6.701E-03   AT NODE      11459   DOF  3
   INSTANCE: PANEL-1                                                                         
 LARGEST CORRECTION TO DISP.       -1.142E-03   AT NODE      11458   DOF  3
   INSTANCE: PANEL-1                                                                         
          FORCE     EQUILIBRIUM NOT ACHIEVED WITHIN TOLERANCE.

 AVERAGE MOMENT                      110.       TIME AVG. MOMENT       97.0    
 LARGEST RESIDUAL MOMENT             1.49       AT NODE      14945   DOF  5
   INSTANCE: PANEL-1                                                                         
 LARGEST INCREMENT OF ROTATION      0.109       AT NODE      14949   DOF  4
   INSTANCE: PANEL-1                                                                         
 LARGEST CORRECTION TO ROTATION    -1.213E-02   AT NODE      15251   DOF  4
   INSTANCE: PANEL-1                                                                         
          MOMENT    EQUILIBRIUM NOT ACHIEVED WITHIN TOLERANCE.
 
	SYMMETRIC DIRECT SPARSE SOLVER RUNNING ON
 	1 HOST:        1 MPI RANK  x 1 THREAD
 	NUMBER OF EQUATIONS:     136656
 	NUMBER OF RHS:           2
 	NUMBER OF FLOPS:         1.438e+10

     CHECK POINT   START OF SOLVER    

     CHECK POINT  END OF SOLVER       

       ELAPSED USER TIME (SEC)      =   1.3000    
       ELAPSED SYSTEM TIME (SEC)    =  0.10000    
       ELAPSED TOTAL CPU TIME (SEC) =   1.4000    
       ELAPSED WALLCLOCK TIME (SEC) =          1

               CONVERGENCE CHECKS FOR EQUILIBRIUM ITERATION     6


 AVERAGE FORCE                      2.037E+04   TIME AVG. FORCE       1.891E+04
 LARGEST RESIDUAL FORCE             1.488E+04   AT NODE       7853   DOF  2
   INSTANCE: PANEL-1                                                                         
 LARGEST INCREMENT OF DISP.         4.995E-03   AT NODE      11459   DOF  3
   INSTANCE: PANEL-1                                                                         
 LARGEST CORRECTION TO DISP.       -1.720E-03   AT NODE      11460   DOF  3
   INSTANCE: PANEL-1                                                                         
          FORCE     EQUILIBRIUM NOT ACHIEVED WITHIN TOLERANCE.

 AVERAGE MOMENT                      110.       TIME AVG. MOMENT       97.0    
 LARGEST RESIDUAL MOMENT            -7.06       AT NODE       7853   DOF  5
   INSTANCE: PANEL-1                                                                         
 LARGEST INCREMENT OF ROTATION      8.172E-02   AT NODE      14949   DOF  4
   INSTANCE: PANEL-1                                                                         
 LARGEST CORRECTION TO ROTATION     2.771E-02   AT NODE       7853   DOF  4
   INSTANCE: PANEL-1                                                                         
          MOMENT    EQUILIBRIUM NOT ACHIEVED WITHIN TOLERANCE.
 

 ***NOTE: THE SOLUTION APPEARS TO BE DIVERGING. CONVERGENCE IS JUDGED UNLIKELY.


  INCREMENT   189 STARTS. ATTEMPT NUMBER  2
 
	SYMMETRIC DIRECT SPARSE SOLVER RUNNING ON
 	1 HOST:        1 MPI RANK  x 1 THREAD
 	NUMBER OF EQUATIONS:     136656
 	NUMBER OF RHS:           2
 	NUMBER OF FLOPS:         1.438e+10

     CHECK POINT   START OF SOLVER    

     CHECK POINT  END OF SOLVER       

       ELAPSED USER TIME (SEC)      =   1.3000    
       ELAPSED SYSTEM TIME (SEC)    =   0.0000    
       ELAPSED TOTAL CPU TIME (SEC) =   1.3000    
       ELAPSED WALLCLOCK TIME (SEC) =          2
 

 ***WARNING: THE SYSTEM MATRIX HAS 1 NEGATIVE EIGENVALUES.
             EXPLANATIONS ARE SUGGESTED AFTER THE FIRST OCCURRENCE OF THIS MESSAGE.

               CONVERGENCE CHECKS FOR EQUILIBRIUM ITERATION     1


 AVERAGE FORCE                      2.030E+04   TIME AVG. FORCE       1.891E+04
 LARGEST RESIDUAL FORCE            -9.008E+03   AT NODE      14949   DOF  2
   INSTANCE: PANEL-1                                                                         
 LARGEST INCREMENT OF DISP.         1.529E-03   AT NODE      15072   DOF  3
   INSTANCE: PANEL-1                                                                         
 LARGEST CORRECTION TO DISP.        1.529E-03   AT NODE      15072   DOF  3
   INSTANCE: PANEL-1                                                                         
          FORCE     EQUILIBRIUM NOT ACHIEVED WITHIN TOLERANCE.

 AVERAGE MOMENT                      110.       TIME AVG. MOMENT       97.0    
 LARGEST RESIDUAL MOMENT             4.33       AT NODE      14949   DOF  5
   INSTANCE: PANEL-1                                                                         
 LARGEST INCREMENT OF ROTATION     -2.209E-02   AT NODE      14949   DOF  4
   INSTANCE: PANEL-1                                                                         
 LARGEST CORRECTION TO ROTATION    -2.209E-02   AT NODE      14949   DOF  4
   INSTANCE: PANEL-1                                                                         
          MOMENT    EQUILIBRIUM NOT ACHIEVED WITHIN TOLERANCE.
 
	SYMMETRIC DIRECT SPARSE SOLVER RUNNING ON
 	1 HOST:        1 MPI RANK  x 1 THREAD
 	NUMBER OF EQUATIONS:     136656
 	NUMBER OF RHS:           2
 	NUMBER OF FLOPS:         1.438e+10

     CHECK POINT   START OF SOLVER    

     CHECK POINT  END OF SOLVER       

       ELAPSED USER TIME (SEC)      =   1.2000    
       ELAPSED SYSTEM TIME (SEC)    =   0.0000    
       ELAPSED TOTAL CPU TIME (SEC) =   1.2000    
       ELAPSED WALLCLOCK TIME (SEC) =          2

               CONVERGENCE CHECKS FOR EQUILIBRIUM ITERATION     2


 AVERAGE FORCE                      2.031E+04   TIME AVG. FORCE       1.891E+04
 LARGEST RESIDUAL FORCE             -13.5       AT NODE       7552   DOF  2
   INSTANCE: PANEL-1                                                                         
 LARGEST INCREMENT OF DISP.         1.543E-03   AT NODE      15223   DOF  3
   INSTANCE: PANEL-1                                                                         
 LARGEST CORRECTION TO DISP.       -9.619E-05   AT NODE      11348   DOF  3
   INSTANCE: PANEL-1                                                                         
 ESTIMATE OF DISP.    CORRECTION   -1.442E-07
 FORCE     EQUILIB. ACCEPTED BASED ON SMALL RESIDUAL AND ESTIMATED CORRECTION

 AVERAGE MOMENT                      110.       TIME AVG. MOMENT       97.0    
 LARGEST RESIDUAL MOMENT           -0.397       AT NODE      14949   DOF  5
   INSTANCE: PANEL-1                                                                         
 LARGEST INCREMENT OF ROTATION     -2.260E-02   AT NODE      14949   DOF  4
   INSTANCE: PANEL-1                                                                         
 LARGEST CORRECTION TO ROTATION     8.535E-04   AT NODE      15101   DOF  4
   INSTANCE: PANEL-1                                                                         
          ROTATION CORRECTION TOO LARGE COMPARED TO ROTATION INCREMENT
 
	SYMMETRIC DIRECT SPARSE SOLVER RUNNING ON
 	1 HOST:        1 MPI RANK  x 1 THREAD
 	NUMBER OF EQUATIONS:     136656
 	NUMBER OF RHS:           2
 	NUMBER OF FLOPS:         1.438e+10

     CHECK POINT   START OF SOLVER    

     CHECK POINT  END OF SOLVER       

       ELAPSED USER TIME (SEC)      =   1.3000    
       ELAPSED SYSTEM TIME (SEC)    =   0.0000    
       ELAPSED TOTAL CPU TIME (SEC) =   1.3000    
       ELAPSED WALLCLOCK TIME (SEC) =          2
 

 ***WARNING: THE SYSTEM MATRIX HAS 2 NEGATIVE EIGENVALUES.
             EXPLANATIONS ARE SUGGESTED AFTER THE FIRST OCCURRENCE OF THIS MESSAGE.

               CONVERGENCE CHECKS FOR EQUILIBRIUM ITERATION     3


 AVERAGE FORCE                      2.010E+04   TIME AVG. FORCE       1.891E+04
 LARGEST RESIDUAL FORCE            -8.895E+04   AT NODE      15100   DOF  2
   INSTANCE: PANEL-1                                                                         
 LARGEST INCREMENT OF DISP.        -5.490E-03   AT NODE      11458   DOF  3
   INSTANCE: PANEL-1                                                                         
 LARGEST CORRECTION TO DISP.       -4.337E-03   AT NODE      11458   DOF  3
   INSTANCE: PANEL-1                                                                         
          FORCE     EQUILIBRIUM NOT ACHIEVED WITHIN TOLERANCE.

 AVERAGE MOMENT                      110.       TIME AVG. MOMENT       97.0    
 LARGEST RESIDUAL MOMENT             39.8       AT NODE      15100   DOF  5
   INSTANCE: PANEL-1                                                                         
 LARGEST INCREMENT OF ROTATION     -9.032E-02   AT NODE      15100   DOF  4
   INSTANCE: PANEL-1                                                                         
 LARGEST CORRECTION TO ROTATION    -6.821E-02   AT NODE      15100   DOF  4
   INSTANCE: PANEL-1                                                                         
          MOMENT    EQUILIBRIUM NOT ACHIEVED WITHIN TOLERANCE.
 
	SYMMETRIC DIRECT SPARSE SOLVER RUNNING ON
 	1 HOST:        1 MPI RANK  x 1 THREAD
 	NUMBER OF EQUATIONS:     136656
 	NUMBER OF RHS:           2
 	NUMBER OF FLOPS:         1.438e+10

     CHECK POINT   START OF SOLVER    

     CHECK POINT  END OF SOLVER       

       ELAPSED USER TIME (SEC)      =   1.1000    
       ELAPSED SYSTEM TIME (SEC)    =  0.10000    
       ELAPSED TOTAL CPU TIME (SEC) =   1.2000    
       ELAPSED WALLCLOCK TIME (SEC) =          2

               CONVERGENCE CHECKS FOR EQUILIBRIUM ITERATION     4


 AVERAGE FORCE                      2.024E+04   TIME AVG. FORCE       1.891E+04
 LARGEST RESIDUAL FORCE              384.       AT NODE      15248   DOF  1
   INSTANCE: PANEL-1                                                                         
 LARGEST INCREMENT OF DISP.        -5.676E-03   AT NODE      11458   DOF  3
   INSTANCE: PANEL-1                                                                         
 LARGEST CORRECTION TO DISP.       -5.483E-04   AT NODE      11452   DOF  3
   INSTANCE: PANEL-1                                                                         
          FORCE     EQUILIBRIUM NOT ACHIEVED WITHIN TOLERANCE.

 AVERAGE MOMENT                      110.       TIME AVG. MOMENT       97.0    
 LARGEST RESIDUAL MOMENT            -3.90       AT NODE      15100   DOF  5
   INSTANCE: PANEL-1                                                                         
 LARGEST INCREMENT OF ROTATION     -9.147E-02   AT NODE      15100   DOF  4
   INSTANCE: PANEL-1                                                                         
 LARGEST CORRECTION TO ROTATION     4.741E-03   AT NODE      15097   DOF  5
   INSTANCE: PANEL-1                                                                         
          MOMENT    EQUILIBRIUM NOT ACHIEVED WITHIN TOLERANCE.
 
	SYMMETRIC DIRECT SPARSE SOLVER RUNNING ON
 	1 HOST:        1 MPI RANK  x 1 THREAD
 	NUMBER OF EQUATIONS:     136656
 	NUMBER OF RHS:           2
 	NUMBER OF FLOPS:         1.438e+10

     CHECK POINT   START OF SOLVER    

     CHECK POINT  END OF SOLVER       

       ELAPSED USER TIME (SEC)      =   1.2000    
       ELAPSED SYSTEM TIME (SEC)    =  0.10000    
       ELAPSED TOTAL CPU TIME (SEC) =   1.3000    
       ELAPSED WALLCLOCK TIME (SEC) =          1
 

 ***WARNING: THE SYSTEM MATRIX HAS 2 NEGATIVE EIGENVALUES.
             EXPLANATIONS ARE SUGGESTED AFTER THE FIRST OCCURRENCE OF THIS MESSAGE.

               CONVERGENCE CHECKS FOR EQUILIBRIUM ITERATION     5


 AVERAGE FORCE                      2.017E+04   TIME AVG. FORCE       1.891E+04
 LARGEST RESIDUAL FORCE            -2.987E+05   AT NODE      15100   DOF  2
   INSTANCE: PANEL-1                                                                         
 LARGEST INCREMENT OF DISP.         3.174E-03   AT NODE      11455   DOF  3
   INSTANCE: PANEL-1                                                                         
 LARGEST CORRECTION TO DISP.        8.667E-03   AT NODE      11457   DOF  3
   INSTANCE: PANEL-1                                                                         
          FORCE     EQUILIBRIUM NOT ACHIEVED WITHIN TOLERANCE.

 AVERAGE MOMENT                      111.       TIME AVG. MOMENT       97.0    
 LARGEST RESIDUAL MOMENT             135.       AT NODE      15100   DOF  5
   INSTANCE: PANEL-1                                                                         
 LARGEST INCREMENT OF ROTATION      3.531E-02   AT NODE       7701   DOF  4
   INSTANCE: PANEL-1                                                                         
 LARGEST CORRECTION TO ROTATION     0.124       AT NODE      15100   DOF  4
   INSTANCE: PANEL-1                                                                         
          MOMENT    EQUILIBRIUM NOT ACHIEVED WITHIN TOLERANCE.
 

 ***NOTE: THE SOLUTION APPEARS TO BE DIVERGING. CONVERGENCE IS JUDGED UNLIKELY.
 

 ***ERROR: TIME INCREMENT REQUIRED IS LESS THAN THE MINIMUM SPECIFIED

 ***ERROR: THE ANALYSIS HAS BEEN TERMINATED DUE TO PREVIOUS ERRORS. ALL OUTPUT 
           REQUESTS HAVE BEEN WRITTEN FOR THE LAST CONVERGED INCREMENT.



     ANALYSIS SUMMARY:
     TOTAL OF        189  INCREMENTS
                      47  CUTBACKS IN AUTOMATIC INCREMENTATION
                    1034  ITERATIONS INCLUDING CONTACT ITERATIONS IF PRESENT
                    1034  PASSES THROUGH THE EQUATION SOLVER OF WHICH 
                    1034  INVOLVE MATRIX DECOMPOSITION, INCLUDING
                       0  DECOMPOSITION(S) OF THE MASS MATRIX
                       1  REORDERING OF EQUATIONS TO MINIMIZE WAVEFRONT
                       0  ADDITIONAL RESIDUAL EVALUATIONS FOR LINE SEARCHES
                       0  ADDITIONAL OPERATOR EVALUATIONS FOR LINE SEARCHES
                       0  WARNING MESSAGES DURING USER INPUT PROCESSING
                     778  WARNING MESSAGES DURING ANALYSIS
                       0  ANALYSIS WARNINGS ARE NUMERICAL PROBLEM MESSAGES
                     778  ANALYSIS WARNINGS ARE NEGATIVE EIGENVALUE MESSAGES
                       2  ERROR MESSAGES



     JOB TIME SUMMARY
       USER TIME (SEC)      =   2137.8    
       SYSTEM TIME (SEC)    =   125.20    
       TOTAL CPU TIME (SEC) =   2263.0    
       WALLCLOCK TIME (SEC) =       2302
