 Abaqus/Standard 2022                  DATE 07-Sep-2025 TIME 20:46:35
 SUMMARY OF JOB INFORMATION:
 STEP  INC ATT SEVERE EQUIL TOTAL  TOTAL      STEP       INC OF       DOF    IF
               DISCON ITERS ITERS  TIME/    TIME/LPF    TIME/LPF    MONITOR RIKS
               ITERS               FREQ
   1     1   1     0     4     4             0.152      0.1517                R
   1     2   1     0     3     3             0.180      0.02823               R
   1     3   1     0     3     3             0.227      0.04757               R
   1     4   1     0     4     4             0.319      0.09181               R
   1     5   1     0     4     4             0.484      0.1650                R
   1     6   1     0     4     4             0.759      0.2751                R
   1     7   1     0     5     5             1.22       0.4568                R
   1     8   1     0     5     5             1.71       0.4957                R
   1     9   1     0     6     6             2.24       0.5318                R
   1    10   1U    0     8     8             2.24       0.5654                R
   1    10   2     0     4     4             2.38       0.1371                R
   1    11   1     0     4     4             2.52       0.1375                R
   1    12   1     0     4     4             2.73       0.2132                R
   1    13   1U    0     9     9             2.73      -0.8532                R
   1    13   2U    0     8     8             2.73       0.1263                R
   1    13   3     0     3     3             2.74       0.01136               R
   1    14   1     0     3     3             2.76       0.01706               R
   1    15   1     0     4     4             2.79       0.02555               R
   1    16   1U    0     4     4             2.79       6.858                 R
   1    16   2U    0     5     5             2.79       0.01925               R
   1    16   3     0     4     4             2.79      -0.0003376             R
   1    17   1     0     3     3             2.78      -0.001867              R
   1    18   1     0     3     3             2.78      -0.002902              R
   1    19   1     0     3     3             2.78      -0.004417              R
   1    20   1     0     3     3             2.77      -0.006673              R
   1    21   1     0     3     3             2.76      -0.01005               R
   1    22   1     0     3     3             2.74      -0.01509               R
   1    23   1     0     3     3             2.72      -0.02261               R
   1    24   1     0     3     3             2.69      -0.03381               R
   1    25   1     0     3     3             2.64      -0.05048               R
   1    26   1     0     5     5             2.55      -0.09093               R
   1    27   1     0     6     6             2.46      -0.09114               R
   1    28   1U    0     5     5             2.46       0.1219                R
   1    28   2     0     3     3             2.44      -0.01307               R
   1    29   1     0     3     3             2.44      -0.003849              R
   1    30   1     0     4     4             2.45       0.008754              R
   1    31   1     0     4     4             2.47       0.02455               R
   1    32   1     0     4     4             2.52       0.04463               R
   1    33   1     0     4     4             2.59       0.07254               R
   1    34   1     0     4     4             2.70       0.1135                R
   1    35   1     0     4     4             2.88       0.1749                R
   1    36   1     0     4     4             3.14       0.2673                R
   1    37   1     0     4     4             3.55       0.4051                R
   1    38   1     0     4     4             4.16       0.6073                R
   1    39   1     0     4     4             5.04       0.8814                R
   1    40   1U    0     7     7             5.04       1.045                 R
   1    40   2     0     6     6             5.50       0.4625                R
   1    41   1U    0     7     7             5.50      -0.3957                R
   1    41   2     0     4     4             5.61       0.1112                R
   1    42   1     0     4     4             5.72       0.1095                R
   1    43   1U    0     4     4             5.72      -0.9972                R
   1    43   2     0     4     4             5.78       0.06152               R
   1    44   1U    0     8     8             5.78       0.1152                R
   1    44   2     0     4     4             5.82       0.03487               R
   1    45   1U    0     6     6             5.82       0.06845               R
   1    45   2     0     4     4             5.84       0.01973               R
   1    46   1U    0     7     7             5.84       0.03447               R
   1    46   2     0     4     4             5.85       0.01085               R
   1    47   1     0     8     8             5.87       0.01755               R
   1    48   1     0     4     4             5.87       0.001416              R
   1    49   1     0     4     4             5.86      -0.005090              R
   1    50   1     0     3     3             5.85      -0.01217               R
   1    51   1     0     3     3             5.83      -0.02247               R
   1    52   1     0     3     3             5.79      -0.03738               R
   1    53   1     0     4     4             5.73      -0.05879               R
   1    54   1     0     8     8             5.65      -0.08024               R
   1    55   1U    0     5     5             5.65      -0.04177               R
   1    55   2     0     4     4             5.64      -0.01097               R
   1    56   1U    0     5     5             5.64       0.04697               R
   1    56   2     0     4     4             5.64       0.001489              R
   1    57   1     0     5     5             5.64       0.002603              R
   1    58   1     0     6     6             5.65       0.007953              R
   1    59   1U    0     5     5             5.65      -0.0006305             R
   1    59   2     0     3     3             5.65       0.001639              R
   1    60   1     0     3     3             5.66       0.001742              R
   1    61   1     0     3     3             5.66       0.002756              R
   1    62   1     0     4     4             5.66       0.003158              R
   1    63   1U    0     5     5             5.66       0.004589              R
   1    63   2     0     3     3             5.66       0.002633              R
   1    64   1     0     4     4             5.67       0.003068              R
   1    65   1U    0     5     5             5.67       0.01078               R
   1    65   2     0     3     3             5.67       0.002418              R
   1    66   1     0     4     4             5.67       0.003281              R
   1    67   1U    0     5     5             5.67      -0.1360                R
   1    67   2     0     3     3             5.67       0.002169              R
   1    68   1     0     4     4             5.68       0.003165              R
   1    69   1     0     8     8             5.68       0.003583              R
   1    70   1U    0     5     5             5.68       0.006153              R
   1    70   2     0     3     3             5.68       0.001312              R
   1    71   1     0     3     3             5.68       0.001322              R
   1    72   1     0     3     3             5.69       0.001996              R
   1    73   1     0     3     3             5.69       0.002985              R
   1    74   1     0     4     4             5.69       0.003624              R
   1    75   1U    0     5     5             5.69       0.005026              R
   1    75   2     0     3     3             5.70       0.002633              R
   1    76   1     0     3     3             5.70       0.003800              R
   1    77   1U    0     5     5             5.70      -0.0003428             R
   1    77   2     0     3     3             5.70       0.002278              R
   1    78   1     0     3     3             5.71       0.003404              R
   1    79   1     0     4     4             5.71       0.004126              R
   1    80   1U    0     5     5             5.71       0.1062                R
   1    80   2     0     3     3             5.71       0.002971              R
   1    81   1     0     3     3             5.72       0.004317              R
   1    82   1U    0     5     5             5.72       0.006597              R
   1    82   2     0     3     3             5.72       0.002555              R
   1    83   1     0     3     3             5.72       0.003816              R
   1    84   1     0     4     4             5.73       0.005003              R
   1    85   1     0    10    10             5.76       0.02975               R
   1    86   1     0     6     6             5.76       0.002038              R
   1    87   1     0     6     6             5.76       0.002271              R
   1    88   1     0     5     5             5.77       0.003805              R
   1    89   1     0     4     4             5.77       0.005738              R
   1    90   1     0     4     4             5.78       0.007251              R
   1    91   1U    0     4     4             5.78       0.008137              R
   1    91   2     0     3     3             5.78       0.005121              R
   1    92   1     0     4     4             5.79       0.007580              R
   1    93   1     0     5     5             5.80       0.003852              R
   1    94   1     0     4     4             5.80       0.006454              R
   1    95   1     0     4     4             5.81       0.009217              R
   1    96   1     0     6     6             5.82       0.01282               R
   1    97   1     0     8     8             5.83       0.004738              R
   1    98   1U    0     9     9             5.83      -0.02622               R
   1    98   2     0     3     3             5.84       0.008586              R
   1    99   1     0     3     3             5.85       0.008571              R
   1   100   1     0     4     4             5.86       0.01263               R
   1   101   1U    0     4     4             5.86       0.04778               R
   1   101   2     0     3     3             5.87       0.007190              R
   1   102   1     0     3     3             5.88       0.01073               R
   1   103   1     0     4     4             5.89       0.01576               R
   1   104   1U    0     4     4             5.89      -0.05069               R
   1   104   2     0     3     3             5.90       0.008972              R
   1   105   1     0     3     3             5.91       0.01338               R
   1   106   1     0     4     4             5.93       0.01965               R
   1   107   1U    0     5     5             5.93       0.04427               R
   1   107   2     0     3     3             5.95       0.01114               R
   1   108   1     0     3     3             5.96       0.01658               R
   1   109   1     0     4     4             5.99       0.02442               R
   1   110   1U    0     4     4             5.99       0.04149               R
   1   110   2     0     3     3             6.00       0.01373               R
   1   111   1     0     3     3             6.02       0.02042               R
   1   112   1     0     4     4             6.05       0.03011               R
   1   113   1U    0     4     4             6.05      -0.1194                R
   1   113   2     0     3     3             6.07       0.01681               R
   1   114   1     0     3     3             6.09       0.02493               R
   1   115   1     0     3     3             6.13       0.03672               R
   1   116   1     0     5     5             6.18       0.04797               R
   1   117   1     0     4     4             6.23       0.05200               R
   1   118   1     0     3     3             6.28       0.05053               R
   1   119   1     0     4     4             6.35       0.07143               R
   1   120   1     0     4     4             6.45       0.09880               R
   1   121   1     0     4     4             6.58       0.1345                R
   1   122   1     0     6     6             6.74       0.1564                R
   1   123   1     0     6     6             6.83       0.09060               R
   1   124   1     0     7     7             6.84       0.01196               R
   1   125   1     0     8     8             6.76      -0.08386               R
   1   126   1U    0     6     6             6.76      -0.2007                R
   1   126   2     0     4     4             6.72      -0.03735               R
   1   127   1     0     4     4             6.68      -0.04489               R
   1   128   1     0     5     5             6.59      -0.08499               R
   1   129   1     0     6     6             6.48      -0.1089                R
   1   130   1     0     6     6             6.34      -0.1393                R
   1   131   1     0     7     7             6.18      -0.1621                R
   1   132   1U    0     5     5             6.18      -0.5095                R
   1   132   2     0     4     4             6.14      -0.03972               R
   1   133   1     0     4     4             6.10      -0.04085               R
   1   134   1     0     4     4             6.03      -0.07197               R
   1   135   1U    0     5     5             6.03       0.1666                R
   1   135   2     0     4     4             5.99      -0.03603               R
   1   136   1     0     4     4             5.93      -0.06107               R
   1   137   1U    0     4     4             5.93      -9.901                 R
   1   137   2     0     3     3             5.90      -0.03101               R
   1   138   1     0     4     4             5.85      -0.04851               R
   1   139   1U    0     4     4             5.85      -3.290                 R
   1   139   2     0     3     3             5.83      -0.02660               R
   1   140   1     0     3     3             5.79      -0.03978               R
   1   141   1U    0     9     9             5.79       0.4208                R
   1   141   2     0     4     4             5.74      -0.04136               R
   1   142   1     0     7     7             5.74      -0.001734              R
   1   143   1     0     7     7             5.75       0.007188              R
   1   144   1U    0     7     7             5.75      -0.3061                R
   1   144   2     0     3     3             5.77       0.01712               R
   1   145   1     0     3     3             5.78       0.01707               R
   1   146   1     0     3     3             5.81       0.02548               R
   1   147   1     0     3     3             5.85       0.03812               R
   1   148   1     0     4     4             5.91       0.06407               R
   1   149   1     0     6     6             5.94       0.03074               R
   1   150   1     0     7     7             6.11       0.1686                R
   1   151   1     0     8     8             6.18       0.07065               R
   1   152   1     0     4     4             6.25       0.06564               R
   1   153   1     0     4     4             6.31       0.06280               R
   1   154   1     0     5     5             6.40       0.08726               R
   1   155   1     0     5     5             6.48       0.07924               R
   1   156   1     0     4     4             6.55       0.07107               R
   1   157   1     0     4     4             6.61       0.06302               R
   1   158   1     0     5     5             6.69       0.07920               R
   1   159   1     0     5     5             6.75       0.06186               R
   1   160   1     0     4     4             6.80       0.04568               R
   1   161   1     0     4     4             6.83       0.03051               R
   1   162   1     0     5     5             6.85       0.01910               R
   1   163   1     0     5     5             6.84      -0.009160              R
   1   164   1     0     5     5             6.80      -0.03540               R
   1   165   1     0     4     4             6.74      -0.05871               R
   1   166   1U    0     4     4             6.74      -0.08779               R
   1   166   2     0     3     3             6.72      -0.01925               R
   1   167   1     0     4     4             6.69      -0.03098               R
   1   168   1     0     4     4             6.64      -0.05202               R
   1   169   1     0     4     4             6.56      -0.08607               R
   1   170   1     0     4     4             6.40      -0.1596                R
   1   171   1U    0     4     4             6.40      -0.2669                R
   1   171   2     0     3     3             6.29      -0.1036                R
   1   172   1     0     4     4             6.12      -0.1703                R
   1   173   1U    0     5     5             6.12      -0.2908                R
   1   173   2     0     4     4             6.02      -0.1045                R
   1   174   1U    0     5     5             6.02      -0.1624                R
   1   174   2     0     4     4             5.96      -0.06149               R
   1   175   1     0     4     4             5.86      -0.09628               R
   1   176   1U    0     4     4             5.86      -0.1360                R
   1   176   2     0     4     4             5.80      -0.05600               R
   1   177   1U    0     5     5             5.80      -0.09937               R
   1   177   2     0     3     3             5.77      -0.03131               R
   1   178   1     0     4     4             5.72      -0.04830               R
   1   179   1U    0     4     4             5.72      -0.05449               R
   1   179   2     0     4     4             5.70      -0.02376               R
   1   180   1     0     5     5             5.67      -0.02989               R
   1   181   1     0     5     5             5.65      -0.02376               R
   1   182   1     0     6     6             5.64      -0.009583              R
   1   183   1     0     3     3             5.65       0.01130               R
   1   184   1     0     3     3             5.67       0.01978               R
   1   185   1     0     3     3             5.70       0.03559               R
   1   186   1     0     3     3             5.76       0.05876               R
   1   187   1     0     7     7             5.85       0.08470               R
   1   188   1U    0     5     5             5.85       0.6290                R
   1   188   2     0     6     6             5.86       0.01340               R
   1   189   1U    0     6     6             5.86       0.02772               R
   1   189   2U    0     5     5             5.86       0.009126              R
                          
 THE ANALYSIS HAS NOT BEEN COMPLETED
