 Abaqus/Standard 2020                  DATE 08-Sep-2025 TIME 17:30:17
 SUMMARY OF JOB INFORMATION:
 STEP  INC ATT SEVERE EQUIL TOTAL  TOTAL      STEP       INC OF       DOF    IF
               DISCON ITERS ITERS  TIME/    TIME/LPF    TIME/LPF    MONITOR RIKS
               ITERS               FREQ
   1     1   1     0     2     2             0.0421     0.04206               R
   1     2   1     0     2     2             0.0724     0.03035               R
   1     3   1     0     2     2             0.105      0.03229               R
   1     4   1     0     2     2             0.136      0.03168               R
   1     5   1     0     2     2             0.165      0.02891               R
   1     6   1     0     2     2             0.190      0.02509               R
   1     7   1     0     2     2             0.212      0.02172               R
   1     8   1     0     2     2             0.233      0.02057               R
   1     9   1     0     2     2             0.257      0.02411               R
   1    10   1     0     3     3             0.293      0.03645               R
   1    11   1     0     3     3             0.358      0.06472               R
   1    12   1     0     4     4             0.477      0.1189                R
   1    13   1     0     4     4             0.686      0.2089                R
   1    14   1     0     4     4             1.03       0.3457                R
   1    15   1     0     5     5             1.60       0.5694                R
   1    16   1     0     4     4             2.22       0.6146                R
   1    17   1     0     4     4             2.87       0.6550                R
   1    18   1     0     6     6             3.93       1.058                 R
   1    19   1     0     5     5             5.06       1.131                 R
   1    20   1U    0     6     6             5.06       0.4458                R
   1    20   2U    0     5     5             5.06       0.3579                R
   1    20   3     0     3     3             5.08       0.01800               R
   1    21   1     0     3     3             5.09       0.01795               R
   1    22   1     0     3     3             5.12       0.02680               R
   1    23   1     0     3     3             5.16       0.04012               R
   1    24   1     0     3     3             5.22       0.05963               R
   1    25   1U    0     4     4             5.22      -0.06442               R
   1    25   2     0     5     5             5.24       0.01626               R
   1    26   1     0     6     6             5.24       0.003414              R
   1    27   1U    0     5     5             5.24       0.07094               R
   1    27   2     0     3     3             5.24       0.002472              R
   1    28   1     0     3     3             5.24      -0.005566              R
   1    29   1     0     3     3             5.23      -0.01143               R
   1    30   1     0     3     3             5.21      -0.01842               R
   1    31   1     0     3     3             5.18      -0.02831               R
   1    32   1     0     3     3             5.14      -0.04281               R
   1    33   1     0     3     3             5.07      -0.06450               R
   1    34   1     0     3     3             4.98      -0.09739               R
   1    35   1     0     4     4             4.83      -0.1457                R
   1    36   1U    0     5     5             4.83      -0.9690                R
   1    36   2U    0     4     4             4.83      -0.4867                R
   1    36   3     0     2     2             4.82      -0.007641              R
   1    37   1     0     3     3             4.81      -0.01145               R
   1    38   1     0     3     3             4.79      -0.01716               R
   1    39   1     0     3     3             4.77      -0.02566               R
   1    40   1     0     6     6             4.73      -0.04114               R
   1    41   1     0     5     5             4.69      -0.03851               R
   1    42   1     0     4     4             4.65      -0.03725               R
   1    43   1     0     3     3             4.61      -0.03738               R
   1    44   1     0     3     3             4.56      -0.05598               R
   1    45   1     0     3     3             4.47      -0.08342               R
   1    46   1     0     4     4             4.36      -0.1156                R
   1    47   1     0     4     4             4.18      -0.1814                R
   1    48   1     0     4     4             3.91      -0.2676                R
   1    49   1U    0     6     6             3.91      -0.3510                R
   1    49   2     0     4     4             3.75      -0.1594                R
   1    50   1     0     4     4             3.54      -0.2074                R
                          
 THE ANALYSIS HAS COMPLETED SUCCESSFULLY
