1

   Abaqus 2022                                  Date 05-Sep-2025   Time 18:53:25
   For use by UNIVERSITY OF BRITISH COLUMBIA under license from Dassault Systemes or its subsidiary.

                                                                                 
                                                                                 
 STEP    1     INCREMENT     1     STEP TIME    0.00    


                        S T E P       1     C A L C U L A T I O N   O F   E I G E N V A L U E S

                                            F O R   B U C K L I N G   P R E D I C T I O N



                                                                                          

     THE SUBSPACE ITERATION METHOD IS USED FOR THIS ANALYSIS
     NUMBER OF EIGENVALUES                      5
     MAXIMUM NUMBER OF ITERATIONS                    500
     NUMBER OF VECTORS IN ITERATION                   10
     THE BUCKLING MODE CONSTRAINTS 
      ARE DEFINED AS LOAD CASE 2
                              ONLY INITIAL STRESS EFFECTS ARE INCLUDED IN THE
                              STIFFNESS MATRIX

     THIS IS A LINEAR PERTURBATION STEP.
     ALL LOADS ARE DEFINED AS CHANGE IN LOAD TO THE REFERENCE STATE

     EXTRAPOLATION WILL NOT BE USED

     CHARACTERISTIC ELEMENT LENGTH     2.026E-02

     DETAILS REGARDING ACTUAL SOLUTION WAVEFRONT REQUESTED

     DETAILED OUTPUT OF DIAGNOSTICS TO DATABASE REQUESTED

     PRINT OF INCREMENT NUMBER, TIME, ETC., TO THE MESSAGE FILE EVERY     1  INCREMENTS
 
	SYMMETRIC DIRECT SPARSE SOLVER RUNNING ON
 	1 HOST:        1 MPI RANK  x 1 THREAD
 	NUMBER OF EQUATIONS:     172691
 	NUMBER OF RHS:           1
 	NUMBER OF FLOPS:         1.865e+10

     CHECK POINT   START OF SOLVER    

     CHECK POINT  END OF SOLVER       

       ELAPSED USER TIME (SEC)      =   1.6000    
       ELAPSED SYSTEM TIME (SEC)    =  0.10000    
       ELAPSED TOTAL CPU TIME (SEC) =   1.7000    
       ELAPSED WALLCLOCK TIME (SEC) =          2
 
     ITERATION 1
      1       2.609118e+02     
      2       3.678505e+02     
      3       3.927110e+02     
      4       4.293082e+02     
      5       4.851136e+02     
      6       5.242124e+02     
      7       5.564100e+02     
      8       6.467367e+02     
      9       6.565718e+02     
      10      7.733233e+02     
 
     NUMBER OF EIGENVALUES CONVERGED UPTO THIS ITERATION = 0
 
     ITERATION 2
      1       8.994179e+00     
      2       9.651410e+00     
      3       1.039073e+01     
      4       1.117558e+01     
      5       1.441496e+01     
      6       1.500012e+01     
      7       1.766606e+01     
      8       2.142696e+01     
      9       2.515326e+01     
      10      3.183031e+01     
 
     NUMBER OF EIGENVALUES CONVERGED UPTO THIS ITERATION = 0
 
     ITERATION 3
      1       8.374911e+00     
      2       8.417930e+00     
      3       8.449516e+00     
      4       8.740852e+00     
      5       1.248012e+01     
      6       1.257060e+01     
      7       1.314122e+01     
      8       1.360728e+01     
      9       1.532681e+01     
      10      1.881921e+01     
 
     NUMBER OF EIGENVALUES CONVERGED UPTO THIS ITERATION = 0
 
     ITERATION 4
      1       8.275153e+00     
      2       8.286702e+00     
      3       8.306130e+00     
      4       8.370602e+00     
      5       1.214920e+01     
      6       1.222930e+01     
      7       1.253851e+01     
      8       1.261275e+01     
      9       1.339687e+01     
      10      1.574310e+01     
 
     NUMBER OF EIGENVALUES CONVERGED UPTO THIS ITERATION = 0
 
     ITERATION 5
      1       8.248264e+00     
      2       8.263586e+00     
      3       8.284905e+00     
      4       8.297572e+00     
      5       1.201353e+01     
      6       1.215207e+01     
      7       1.229355e+01     
      8       1.240529e+01     
      9       1.277066e+01     
      10      1.453064e+01     
 
     NUMBER OF EIGENVALUES CONVERGED UPTO THIS ITERATION = 0
 
     ITERATION 6
      1       8.241100e+00     
      2       8.257822e+00     
      3       8.279007e+00     
      4       8.281379e+00     
      5       1.195154e+01     
      6       1.211883e+01     
      7       1.220524e+01     
      8       1.231875e+01     
      9       1.250170e+01     
      10      1.392099e+01     
 
     NUMBER OF EIGENVALUES CONVERGED UPTO THIS ITERATION = 0
 
     ITERATION 7
      1       8.239025e+00     
      2       8.256108e+00     
      3       8.277138e+00     
      4       8.277413e+00     
      5       1.192056e+01     
      6       1.210137e+01     
      7       1.216485e+01     
      8       1.227544e+01     
      9       1.237190e+01     
      10      1.353013e+01     
 
     NUMBER OF EIGENVALUES CONVERGED UPTO THIS ITERATION = 0
 
     ITERATION 8
      1       8.238415e+00     
      2       8.255598e+00     
      3       8.276340e+00     
      4       8.276501e+00     
      5       1.190489e+01     
      6       1.209097e+01     
      7       1.214165e+01     
      8       1.225246e+01     
      9       1.230496e+01     
      10      1.323491e+01     
 
     NUMBER OF EIGENVALUES CONVERGED UPTO THIS ITERATION = 0
 
     ITERATION 9
      1       8.238235e+00     
      2       8.255444e+00     
      3       8.276034e+00     
      4       8.276275e+00     
      5       1.189677e+01     
      6       1.208415e+01     
      7       1.212745e+01     
      8       1.223916e+01     
      9       1.226833e+01     
      10      1.299577e+01     
 
     NUMBER OF EIGENVALUES CONVERGED UPTO THIS ITERATION = 0
 
     ITERATION 10
      1       8.238181e+00     
      2       8.255397e+00     
      3       8.275944e+00     
      4       8.276192e+00     
      5       1.189238e+01     
      6       1.207949e+01     
      7       1.211871e+01     
      8       1.223011e+01     
      9       1.224752e+01     
      10      1.279984e+01     
 
     NUMBER OF EIGENVALUES CONVERGED UPTO THIS ITERATION = 0
 
     ITERATION 11
      1       8.238165e+00     
      2       8.255381e+00     
      3       8.275918e+00     
      4       8.276163e+00     
      5       1.188987e+01     
      6       1.207625e+01     
      7       1.211324e+01     
      8       1.222244e+01     
      9       1.223582e+01     
      10      1.264186e+01     
 
     NUMBER OF EIGENVALUES CONVERGED UPTO THIS ITERATION = 0
 
     ITERATION 12
      1       8.238160e+00     
      2       8.255377e+00     
      3       8.275910e+00     
      4       8.276152e+00     
      5       1.188834e+01     
      6       1.207398e+01     
      7       1.210975e+01     
      8       1.221536e+01     
      9       1.222901e+01     
      10      1.251791e+01     
 
     NUMBER OF EIGENVALUES CONVERGED UPTO THIS ITERATION = 3
 
     ITERATION 13
      1       8.238159e+00     
      2       8.255375e+00     
      3       8.275907e+00     
      4       8.276148e+00     
      5       1.188736e+01     
      6       1.207232e+01     
      7       1.210745e+01     
      8       1.220876e+01     
      9       1.222418e+01     
      10      1.242393e+01     
 
     NUMBER OF EIGENVALUES CONVERGED UPTO THIS ITERATION = 4
 
     ITERATION 14
      1       8.238158e+00     
      2       8.255374e+00     
      3       8.275906e+00     
      4       8.276147e+00     
      5       1.188668e+01     
      6       1.207104e+01     
      7       1.210590e+01     
      8       1.220163e+01     
      9       1.222001e+01     
      10      1.235587e+01     
 
     NUMBER OF EIGENVALUES CONVERGED UPTO THIS ITERATION = 4
 
     ITERATION 15
      1       8.238158e+00     
      2       8.255374e+00     
      3       8.275906e+00     
      4       8.276146e+00     
      5       1.188621e+01     
      6       1.206998e+01     
      7       1.210483e+01     
      8       1.219232e+01     
      9       1.221631e+01     
      10      1.230996e+01     
 
     NUMBER OF EIGENVALUES CONVERGED UPTO THIS ITERATION = 4
 
     ITERATION 16
      1       8.238158e+00     
      2       8.255374e+00     
      3       8.275906e+00     
      4       8.276146e+00     
      5       1.188586e+01     
      6       1.206904e+01     
      7       1.210409e+01     
      8       1.218006e+01     
      9       1.221337e+01     
      10      1.228195e+01     
 
     NUMBER OF EIGENVALUES CONVERGED UPTO THIS ITERATION = 4
 
     ITERATION 17
      1       8.238158e+00     
      2       8.255374e+00     
      3       8.275906e+00     
      4       8.276146e+00     
      5       1.188561e+01     
      6       1.206817e+01     
      7       1.210356e+01     
      8       1.216648e+01     
      9       1.221125e+01     
      10      1.226626e+01     
 
     NUMBER OF EIGENVALUES CONVERGED UPTO THIS ITERATION = 4
 
     ITERATION 18
      1       8.238158e+00     
      2       8.255374e+00     
      3       8.275906e+00     
      4       8.276146e+00     
      5       1.188543e+01     
      6       1.206736e+01     
      7       1.210317e+01     
      8       1.215400e+01     
      9       1.220977e+01     
      10      1.225758e+01     
 
     NUMBER OF EIGENVALUES CONVERGED UPTO THIS ITERATION = 4
 
     ITERATION 19
      1       8.238158e+00     
      2       8.255374e+00     
      3       8.275906e+00     
      4       8.276146e+00     
      5       1.188529e+01     
      6       1.206661e+01     
      7       1.210288e+01     
      8       1.214380e+01     
      9       1.220875e+01     
      10      1.225256e+01     
 
     NUMBER OF EIGENVALUES CONVERGED UPTO THIS ITERATION = 4
 
     ITERATION 20
      1       8.238158e+00     
      2       8.255374e+00     
      3       8.275906e+00     
      4       8.276146e+00     
      5       1.188520e+01     
      6       1.206594e+01     
      7       1.210267e+01     
      8       1.213599e+01     
      9       1.220804e+01     
      10      1.224949e+01     
 
     NUMBER OF EIGENVALUES CONVERGED UPTO THIS ITERATION = 4
 
     ITERATION 21
      1       8.238158e+00     
      2       8.255374e+00     
      3       8.275906e+00     
      4       8.276146e+00     
      5       1.188513e+01     
      6       1.206536e+01     
      7       1.210250e+01     
      8       1.213020e+01     
      9       1.220753e+01     
      10      1.224752e+01     
 
     NUMBER OF EIGENVALUES CONVERGED UPTO THIS ITERATION = 4
 
     ITERATION 22
      1       8.238158e+00     
      2       8.255374e+00     
      3       8.275906e+00     
      4       8.276146e+00     
      5       1.188508e+01     
      6       1.206488e+01     
      7       1.210236e+01     
      8       1.212598e+01     
      9       1.220718e+01     
      10      1.224620e+01     
 
     NUMBER OF EIGENVALUES CONVERGED UPTO THIS ITERATION = 4
 
     ITERATION 23
      1       8.238158e+00     
      2       8.255374e+00     
      3       8.275906e+00     
      4       8.276146e+00     
      5       1.188504e+01     
      6       1.206450e+01     
      7       1.210226e+01     
      8       1.212294e+01     
      9       1.220692e+01     
      10      1.224529e+01     
 
     NUMBER OF EIGENVALUES CONVERGED UPTO THIS ITERATION = 4
 
     ITERATION 24
      1       8.238158e+00     
      2       8.255374e+00     
      3       8.275906e+00     
      4       8.276146e+00     
      5       1.188502e+01     
      6       1.206420e+01     
      7       1.210217e+01     
      8       1.212075e+01     
      9       1.220673e+01     
      10      1.224466e+01     
 
     NUMBER OF EIGENVALUES CONVERGED UPTO THIS ITERATION = 4
 
     ITERATION 25
      1       8.238158e+00     
      2       8.255374e+00     
      3       8.275906e+00     
      4       8.276146e+00     
      5       1.188500e+01     
      6       1.206397e+01     
      7       1.210211e+01     
      8       1.211919e+01     
      9       1.220660e+01     
      10      1.224421e+01     
 
     NUMBER OF EIGENVALUES CONVERGED UPTO THIS ITERATION = 4
 
     ITERATION 26
      1       8.238158e+00     
      2       8.255374e+00     
      3       8.275906e+00     
      4       8.276146e+00     
      5       1.188499e+01     
      6       1.206380e+01     
      7       1.210206e+01     
      8       1.211806e+01     
      9       1.220650e+01     
      10      1.224389e+01     
 
     NUMBER OF EIGENVALUES CONVERGED UPTO THIS ITERATION = 4
 
     ITERATION 27
      1       8.238158e+00     
      2       8.255374e+00     
      3       8.275906e+00     
      4       8.276146e+00     
      5       1.188498e+01     
      6       1.206368e+01     
      7       1.210202e+01     
      8       1.211726e+01     
      9       1.220643e+01     
      10      1.224366e+01     
 
     NUMBER OF EIGENVALUES CONVERGED UPTO THIS ITERATION = 5


          THE ANALYSIS HAS BEEN COMPLETED



     ANALYSIS SUMMARY:
     TOTAL OF          1  INCREMENTS
                       0  CUTBACKS IN AUTOMATIC INCREMENTATION
                       1  ITERATIONS INCLUDING CONTACT ITERATIONS IF PRESENT
                       1  PASSES THROUGH THE EQUATION SOLVER OF WHICH 
                       1  INVOLVE MATRIX DECOMPOSITION, INCLUDING
                       0  DECOMPOSITION(S) OF THE MASS MATRIX
                       1  REORDERING OF EQUATIONS TO MINIMIZE WAVEFRONT
                       0  ADDITIONAL RESIDUAL EVALUATIONS FOR LINE SEARCHES
                       0  ADDITIONAL OPERATOR EVALUATIONS FOR LINE SEARCHES
                       0  WARNING MESSAGES DURING USER INPUT PROCESSING
                       0  WARNING MESSAGES DURING ANALYSIS
                       0  ANALYSIS WARNINGS ARE NUMERICAL PROBLEM MESSAGES
                       0  ANALYSIS WARNINGS ARE NEGATIVE EIGENVALUE MESSAGES
                       0  ERROR MESSAGES



     JOB TIME SUMMARY
       USER TIME (SEC)      =   29.300    
       SYSTEM TIME (SEC)    =   6.9000    
       TOTAL CPU TIME (SEC) =   36.200    
       WALLCLOCK TIME (SEC) =         36
