1

   Abaqus 2022                                  Date 04-Sep-2025   Time 17:41:34
   For use by UNIVERSITY OF BRITISH COLUMBIA under license from Dassault Systemes or its subsidiary.

 ABAQUS Buckling Analysis Set                                                    
 Incremental                                                                     
 STEP    1     INCREMENT     1     STEP TIME    0.00    


                        S T E P       1     S T A T I C   A N A L Y S I S


          Incremental                                                                     

     AUTOMATIC LOAD CONTROL WITH -
          A SUGGESTED INITIAL INCREMENT IN ARC LENGTH           5.000E-02
          AND A TOTAL ARC LENGTH SCALE FACTOR OF                 1.00    
          THE MINIMUM ARC LENGTH INCREMENT ALLOWED IS           1.000E-05
          THE MAXIMUM ARC LENGTH INCREMENT ALLOWED IS           1.000E+36

     LINEAR EQUATION SOLVER TYPE         DIRECT SPARSE

     MODIFIED RIKS METHOD IS USED - AMPLITUDE REFERENCES ARE IGNORED

     THE STEP ENDS WHEN LOAD PROPORTIONALITY FACTOR EXCEEDS    11.5    

 CONVERGENCE TOLERANCE PARAMETERS FOR FORCE    
     CRITERION FOR RESIDUAL FORCE     FOR A NONLINEAR PROBLEM          5.000E-03
     CRITERION FOR DISP.    CORRECTION IN A NONLINEAR PROBLEM          1.000E-02
     INITIAL VALUE OF TIME AVERAGE FORCE                               1.000E-02
     AVERAGE FORCE     IS TIME AVERAGE FORCE    
     ALTERNATE CRIT. FOR RESIDUAL FORCE     FOR A NONLINEAR PROBLEM    2.000E-02
     CRITERION FOR ZERO FORCE     RELATIVE TO TIME AVRG. FORCE         1.000E-05
     CRITERION FOR RESIDUAL FORCE     WHEN THERE IS ZERO FLUX          1.000E-05
     CRITERION FOR DISP.    CORRECTION WHEN THERE IS ZERO FLUX         1.000E-03
     CRITERION FOR RESIDUAL FORCE     FOR A LINEAR INCREMENT           1.000E-08
     FIELD CONVERSION RATIO                                             1.00    
     CRITERION FOR ZERO FORCE     REL. TO TIME AVRG. MAX. FORCE        1.000E-05
     CRITERION FOR ZERO DISP.    RELATIVE TO CHARACTERISTIC LENGTH     1.000E-08

 CONVERGENCE TOLERANCE PARAMETERS FOR MOMENT   
     CRITERION FOR RESIDUAL MOMENT    FOR A NONLINEAR PROBLEM          5.000E-03
     CRITERION FOR ROTATION CORRECTION IN A NONLINEAR PROBLEM          1.000E-02
     INITIAL VALUE OF TIME AVERAGE MOMENT                              1.000E-02
     AVERAGE MOMENT    IS TIME AVERAGE MOMENT   
     ALTERNATE CRIT. FOR RESIDUAL MOMENT    FOR A NONLINEAR PROBLEM    2.000E-02
     CRITERION FOR ZERO MOMENT    RELATIVE TO TIME AVRG. MOMENT        1.000E-05
     CRITERION FOR RESIDUAL MOMENT    WHEN THERE IS ZERO FLUX          1.000E-05
     CRITERION FOR ROTATION CORRECTION WHEN THERE IS ZERO FLUX         1.000E-03
     CRITERION FOR RESIDUAL MOMENT    FOR A LINEAR INCREMENT           1.000E-08
     FIELD CONVERSION RATIO                                             1.00    
     CRITERION FOR ZERO MOMENT    REL. TO TIME AVRG. MAX. MOMENT       1.000E-05

     VOLUMETRIC STRAIN COMPATIBILITY TOLERANCE FOR HYBRID SOLIDS       1.000E-05
     AXIAL STRAIN COMPATIBILITY TOLERANCE FOR HYBRID BEAMS             1.000E-05
     TRANS. SHEAR STRAIN COMPATIBILITY TOLERANCE FOR HYBRID BEAMS      1.000E-05
     SOFT CONTACT CONSTRAINT COMPATIBILITY TOLERANCE FOR P>P0          5.000E-03
     SOFT CONTACT CONSTRAINT COMPATIBILITY TOLERANCE FOR P=0.0         0.100    
     CONTACT FORCE ERROR TOLERANCE FOR CONVERT SDI=YES                 1.00    
     DISPLACEMENT COMPATIBILITY TOLERANCE FOR DCOUP ELEMENTS           1.000E-05
     ROTATION COMPATIBILITY TOLERANCE FOR DCOUP ELEMENTS               1.000E-05

 EQUILIBRIUM WILL BE CHECKED FOR SEVERE DISCONTINUITY ITERATIONS

 TIME INCREMENTATION CONTROL PARAMETERS:
     FIRST EQUILIBRIUM ITERATION FOR CONSECUTIVE DIVERGENCE CHECK              4
     EQUILIBRIUM ITERATION AT WHICH LOG. CONVERGENCE RATE CHECK BEGINS         8
     EQUILIBRIUM ITERATION AFTER WHICH ALTERNATE RESIDUAL IS USED              9
     MAXIMUM EQUILIBRIUM ITERATIONS ALLOWED                                   16
     EQUILIBRIUM ITERATION COUNT FOR CUT-BACK IN NEXT INCREMENT               10
     MAXIMUM EQUILIB. ITERS IN TWO INCREMENTS FOR TIME INCREMENT INCREASE      4
     MAXIMUM ITERATIONS FOR SEVERE DISCONTINUITIES                            50
     MAXIMUM ATTEMPTS ALLOWED IN AN INCREMENT                                  5
     MAXIMUM DISCON. ITERS IN TWO INCREMENTS FOR TIME INCREMENT INCREASE      50
     MAXIMUM CONTACT AUGMENTATIONS FOR *SURFACE BEHAVIOR,AUGMENTED LAGRANGE   50
     CUT-BACK FACTOR AFTER DIVERGENCE                                 0.2500    
     CUT-BACK FACTOR FOR TOO SLOW CONVERGENCE                         0.5000    
     CUT-BACK FACTOR AFTER TOO MANY EQUILIBRIUM ITERATIONS            0.7500    
     CUT-BACK FACTOR AFTER TOO MANY SEVERE DISCONTINUITY ITERATIONS   0.2500    
     CUT-BACK FACTOR AFTER PROBLEMS IN ELEMENT ASSEMBLY               0.2500    
     INCREASE FACTOR AFTER TWO INCREMENTS THAT CONVERGE QUICKLY        1.500    
     MAX. TIME INCREMENT INCREASE FACTOR ALLOWED                       1.500    
     MAX. TIME INCREMENT INCREASE FACTOR ALLOWED (DYNAMICS)            1.250    
     MAX. TIME INCREMENT INCREASE FACTOR ALLOWED (DIFFUSION)           2.000    
     MINIMUM TIME INCREMENT RATIO FOR EXTRAPOLATION TO OCCUR          0.1000    
     MAX. RATIO OF TIME INCREMENT TO STABILITY LIMIT                   1.000    
     FRACTION OF STABILITY LIMIT FOR NEW TIME INCREMENT               0.9500    
     TIME INCREMENT INCREASE FACTOR BEFORE A TIME POINT                1.000    
     GLOBAL STABILIZATION CONTROL IS NOT USED

          PRINT OF INCREMENT NUMBER, TIME, ETC., EVERY    1  INCREMENTS

     THE MAXIMUM NUMBER OF INCREMENTS IN THIS STEP IS                      50

          LARGE DISPLACEMENT THEORY WILL BE USED

     LINEAR EXTRAPOLATION WILL BE USED

     CHARACTERISTIC ELEMENT LENGTH     2.032E-02

     DETAILS REGARDING ACTUAL SOLUTION WAVEFRONT REQUESTED

     DETAILED OUTPUT OF DIAGNOSTICS TO DATABASE REQUESTED

     PRINT OF INCREMENT NUMBER, TIME, ETC., TO THE MESSAGE FILE EVERY     1  INCREMENTS

     FILE OUTPUT WILL BE WRITTEN IN CARD IMAGE FORMAT

     COLLECTING MODEL CONSTRAINT INFORMATION FOR OVERCONSTRAINT CHECKS

     COLLECTING STEP CONSTRAINT INFORMATION FOR OVERCONSTRAINT CHECKS


  INCREMENT     1 STARTS. ATTEMPT NUMBER  1
 
	SYMMETRIC DIRECT SPARSE SOLVER RUNNING ON
 	1 HOST:        1 MPI RANK  x 1 THREAD
 	NUMBER OF EQUATIONS:     172692
 	NUMBER OF RHS:           2
 	NUMBER OF FLOPS:         2.561e+10

     CHECK POINT   START OF SOLVER    

     CHECK POINT  END OF SOLVER       

       ELAPSED USER TIME (SEC)      =   2.0000    
       ELAPSED SYSTEM TIME (SEC)    =  0.20000    
       ELAPSED TOTAL CPU TIME (SEC) =   2.2000    
       ELAPSED WALLCLOCK TIME (SEC) =          2

               CONVERGENCE CHECKS FOR EQUILIBRIUM ITERATION     1


 AVERAGE FORCE                       47.5       TIME AVG. FORCE        47.5    
 LARGEST RESIDUAL FORCE            -0.533       AT NODE       7850   DOF  1
 LARGEST INCREMENT OF DISP.        -1.229E-05   AT NODE        152   DOF  1
 LARGEST CORRECTION TO DISP.       -1.229E-05   AT NODE        152   DOF  1
          FORCE     EQUILIBRIUM NOT ACHIEVED WITHIN TOLERANCE.

 AVERAGE MOMENT                     5.636E-03   TIME AVG. MOMENT      5.636E-03
 LARGEST RESIDUAL MOMENT           -3.406E-04   AT NODE          2   DOF  5
 LARGEST INCREMENT OF ROTATION      9.989E-05   AT NODE          1   DOF  5
 LARGEST CORRECTION TO ROTATION     9.989E-05   AT NODE          1   DOF  5
          MOMENT    EQUILIBRIUM NOT ACHIEVED WITHIN TOLERANCE.
 
	SYMMETRIC DIRECT SPARSE SOLVER RUNNING ON
 	1 HOST:        1 MPI RANK  x 1 THREAD
 	NUMBER OF EQUATIONS:     172692
 	NUMBER OF RHS:           2
 	NUMBER OF FLOPS:         2.561e+10

     CHECK POINT   START OF SOLVER    

     CHECK POINT  END OF SOLVER       

       ELAPSED USER TIME (SEC)      =   1.9000    
       ELAPSED SYSTEM TIME (SEC)    =  0.10000    
       ELAPSED TOTAL CPU TIME (SEC) =   2.0000    
       ELAPSED WALLCLOCK TIME (SEC) =          2

               CONVERGENCE CHECKS FOR EQUILIBRIUM ITERATION     2


 AVERAGE FORCE                       47.5       TIME AVG. FORCE        47.5    
 LARGEST RESIDUAL FORCE             8.790E-04   AT NODE       5739   DOF  1
 LARGEST INCREMENT OF DISP.        -1.228E-05   AT NODE        152   DOF  1
 LARGEST CORRECTION TO DISP.        2.253E-08   AT NODE      27892   DOF  3
          THE FORCE     EQUILIBRIUM EQUATIONS HAVE CONVERGED

 AVERAGE MOMENT                     5.656E-03   TIME AVG. MOMENT      5.656E-03
 LARGEST RESIDUAL MOMENT            7.950E-08   AT NODE          2   DOF  5
 LARGEST INCREMENT OF ROTATION      9.985E-05   AT NODE          1   DOF  5
 LARGEST CORRECTION TO ROTATION    -1.160E-07   AT NODE       7774   DOF  4
          THE MOMENT    EQUILIBRIUM EQUATIONS HAVE CONVERGED

 ITERATION SUMMARY FOR THE INCREMENT:   2 TOTAL ITERATIONS, OF WHICH
   0 ARE SEVERE DISCONTINUITY ITERATIONS AND  2 ARE EQUILIBRIUM ITERATIONS.


                                INCREMENT     1 SUMMARY


     CURRENT LOAD PROPORTIONALITY FACTOR         4.9985E-02
     TOTAL ARC LENGTH   5.000E-02, INCREMENT OF ARC LENGTH   5.000E-02


  INCREMENT     2 STARTS. ATTEMPT NUMBER  1
 
	SYMMETRIC DIRECT SPARSE SOLVER RUNNING ON
 	1 HOST:        1 MPI RANK  x 1 THREAD
 	NUMBER OF EQUATIONS:     172692
 	NUMBER OF RHS:           2
 	NUMBER OF FLOPS:         2.561e+10

     CHECK POINT   START OF SOLVER    

     CHECK POINT  END OF SOLVER       

       ELAPSED USER TIME (SEC)      =   1.9000    
       ELAPSED SYSTEM TIME (SEC)    =  0.10000    
       ELAPSED TOTAL CPU TIME (SEC) =   2.0000    
       ELAPSED WALLCLOCK TIME (SEC) =          2

               CONVERGENCE CHECKS FOR EQUILIBRIUM ITERATION     1


 AVERAGE FORCE                       112.       TIME AVG. FORCE        79.8    
 LARGEST RESIDUAL FORCE            -0.765       AT NODE       7850   DOF  1
 LARGEST INCREMENT OF DISP.        -1.228E-05   AT NODE        152   DOF  1
 LARGEST CORRECTION TO DISP.       -1.228E-05   AT NODE        152   DOF  1
          FORCE     EQUILIBRIUM NOT ACHIEVED WITHIN TOLERANCE.

 AVERAGE MOMENT                     1.361E-02   TIME AVG. MOMENT      9.631E-03
 LARGEST RESIDUAL MOMENT           -4.788E-04   AT NODE          2   DOF  5
 LARGEST INCREMENT OF ROTATION      9.980E-05   AT NODE          1   DOF  5
 LARGEST CORRECTION TO ROTATION     9.980E-05   AT NODE          1   DOF  5
          MOMENT    EQUILIBRIUM NOT ACHIEVED WITHIN TOLERANCE.
 
	SYMMETRIC DIRECT SPARSE SOLVER RUNNING ON
 	1 HOST:        1 MPI RANK  x 1 THREAD
 	NUMBER OF EQUATIONS:     172692
 	NUMBER OF RHS:           2
 	NUMBER OF FLOPS:         2.561e+10

     CHECK POINT   START OF SOLVER    

     CHECK POINT  END OF SOLVER       

       ELAPSED USER TIME (SEC)      =   2.0000    
       ELAPSED SYSTEM TIME (SEC)    =   0.0000    
       ELAPSED TOTAL CPU TIME (SEC) =   2.0000    
       ELAPSED WALLCLOCK TIME (SEC) =          2

               CONVERGENCE CHECKS FOR EQUILIBRIUM ITERATION     2


 AVERAGE FORCE                       112.       TIME AVG. FORCE        79.8    
 LARGEST RESIDUAL FORCE            -1.055E-03   AT NODE       5899   DOF  1
 LARGEST INCREMENT OF DISP.        -1.228E-05   AT NODE        152   DOF  1
 LARGEST CORRECTION TO DISP.        2.278E-08   AT NODE      27892   DOF  3
          THE FORCE     EQUILIBRIUM EQUATIONS HAVE CONVERGED

 AVERAGE MOMENT                     1.363E-02   TIME AVG. MOMENT      9.641E-03
 LARGEST RESIDUAL MOMENT            1.209E-07   AT NODE          2   DOF  5
 LARGEST INCREMENT OF ROTATION      9.976E-05   AT NODE          1   DOF  5
 LARGEST CORRECTION TO ROTATION    -1.169E-07   AT NODE       7774   DOF  4
          THE MOMENT    EQUILIBRIUM EQUATIONS HAVE CONVERGED
          ARC LENGTH INCREMENT MAY NOW INCREASE TO    7.500E-02

 ITERATION SUMMARY FOR THE INCREMENT:   2 TOTAL ITERATIONS, OF WHICH
   0 ARE SEVERE DISCONTINUITY ITERATIONS AND  2 ARE EQUILIBRIUM ITERATIONS.


                                INCREMENT     2 SUMMARY


     CURRENT LOAD PROPORTIONALITY FACTOR         9.9940E-02
     TOTAL ARC LENGTH   0.100    , INCREMENT OF ARC LENGTH   5.000E-02


  INCREMENT     3 STARTS. ATTEMPT NUMBER  1
 
	SYMMETRIC DIRECT SPARSE SOLVER RUNNING ON
 	1 HOST:        1 MPI RANK  x 1 THREAD
 	NUMBER OF EQUATIONS:     172692
 	NUMBER OF RHS:           2
 	NUMBER OF FLOPS:         2.561e+10

     CHECK POINT   START OF SOLVER    

     CHECK POINT  END OF SOLVER       

       ELAPSED USER TIME (SEC)      =   2.0000    
       ELAPSED SYSTEM TIME (SEC)    =  0.10000    
       ELAPSED TOTAL CPU TIME (SEC) =   2.1000    
       ELAPSED WALLCLOCK TIME (SEC) =          2

               CONVERGENCE CHECKS FOR EQUILIBRIUM ITERATION     1


 AVERAGE FORCE                       192.       TIME AVG. FORCE        117.    
 LARGEST RESIDUAL FORCE             -1.90       AT NODE       7850   DOF  1
 LARGEST INCREMENT OF DISP.        -1.841E-05   AT NODE        152   DOF  1
 LARGEST CORRECTION TO DISP.       -1.841E-05   AT NODE        152   DOF  1
          FORCE     EQUILIBRIUM NOT ACHIEVED WITHIN TOLERANCE.

 AVERAGE MOMENT                     2.344E-02   TIME AVG. MOMENT      1.424E-02
 LARGEST RESIDUAL MOMENT           -1.183E-03   AT NODE          2   DOF  5
 LARGEST INCREMENT OF ROTATION      1.496E-04   AT NODE          1   DOF  5
 LARGEST CORRECTION TO ROTATION     1.496E-04   AT NODE          1   DOF  5
          MOMENT    EQUILIBRIUM NOT ACHIEVED WITHIN TOLERANCE.
 
	SYMMETRIC DIRECT SPARSE SOLVER RUNNING ON
 	1 HOST:        1 MPI RANK  x 1 THREAD
 	NUMBER OF EQUATIONS:     172692
 	NUMBER OF RHS:           2
 	NUMBER OF FLOPS:         2.561e+10

     CHECK POINT   START OF SOLVER    

     CHECK POINT  END OF SOLVER       

       ELAPSED USER TIME (SEC)      =   2.0000    
       ELAPSED SYSTEM TIME (SEC)    =  0.10000    
       ELAPSED TOTAL CPU TIME (SEC) =   2.1000    
       ELAPSED WALLCLOCK TIME (SEC) =          2

               CONVERGENCE CHECKS FOR EQUILIBRIUM ITERATION     2


 AVERAGE FORCE                       192.       TIME AVG. FORCE        117.    
 LARGEST RESIDUAL FORCE            -3.832E-03   AT NODE       5899   DOF  1
 LARGEST INCREMENT OF DISP.        -1.840E-05   AT NODE        152   DOF  1
 LARGEST CORRECTION TO DISP.        5.222E-08   AT NODE      27892   DOF  3
          THE FORCE     EQUILIBRIUM EQUATIONS HAVE CONVERGED

 AVERAGE MOMENT                     2.349E-02   TIME AVG. MOMENT      1.426E-02
 LARGEST RESIDUAL MOMENT           -4.656E-07   AT NODE       5737   DOF  5
 LARGEST INCREMENT OF ROTATION      1.495E-04   AT NODE          1   DOF  5
 LARGEST CORRECTION TO ROTATION    -2.678E-07   AT NODE       7774   DOF  4
          THE MOMENT    EQUILIBRIUM EQUATIONS HAVE CONVERGED
          ARC LENGTH INCREMENT MAY NOW INCREASE TO    0.113    

 ITERATION SUMMARY FOR THE INCREMENT:   2 TOTAL ITERATIONS, OF WHICH
   0 ARE SEVERE DISCONTINUITY ITERATIONS AND  2 ARE EQUILIBRIUM ITERATIONS.


                                INCREMENT     3 SUMMARY


     CURRENT LOAD PROPORTIONALITY FACTOR         0.1748    
     TOTAL ARC LENGTH   0.175    , INCREMENT OF ARC LENGTH   7.500E-02


  INCREMENT     4 STARTS. ATTEMPT NUMBER  1
 
	SYMMETRIC DIRECT SPARSE SOLVER RUNNING ON
 	1 HOST:        1 MPI RANK  x 1 THREAD
 	NUMBER OF EQUATIONS:     172692
 	NUMBER OF RHS:           2
 	NUMBER OF FLOPS:         2.561e+10

     CHECK POINT   START OF SOLVER    

     CHECK POINT  END OF SOLVER       

       ELAPSED USER TIME (SEC)      =   2.1000    
       ELAPSED SYSTEM TIME (SEC)    =   0.0000    
       ELAPSED TOTAL CPU TIME (SEC) =   2.1000    
       ELAPSED WALLCLOCK TIME (SEC) =          2

               CONVERGENCE CHECKS FOR EQUILIBRIUM ITERATION     1


 AVERAGE FORCE                       309.       TIME AVG. FORCE        165.    
 LARGEST RESIDUAL FORCE              5.02       AT NODE       5899   DOF  1
 LARGEST INCREMENT OF DISP.        -2.758E-05   AT NODE        152   DOF  1
 LARGEST CORRECTION TO DISP.       -2.758E-05   AT NODE        152   DOF  1
          FORCE     EQUILIBRIUM NOT ACHIEVED WITHIN TOLERANCE.

 AVERAGE MOMENT                     3.829E-02   TIME AVG. MOMENT      2.027E-02
 LARGEST RESIDUAL MOMENT           -2.815E-03   AT NODE          2   DOF  5
 LARGEST INCREMENT OF ROTATION      2.241E-04   AT NODE          1   DOF  5
 LARGEST CORRECTION TO ROTATION     2.241E-04   AT NODE          1   DOF  5
          MOMENT    EQUILIBRIUM NOT ACHIEVED WITHIN TOLERANCE.
 
	SYMMETRIC DIRECT SPARSE SOLVER RUNNING ON
 	1 HOST:        1 MPI RANK  x 1 THREAD
 	NUMBER OF EQUATIONS:     172692
 	NUMBER OF RHS:           2
 	NUMBER OF FLOPS:         2.561e+10

     CHECK POINT   START OF SOLVER    

     CHECK POINT  END OF SOLVER       

       ELAPSED USER TIME (SEC)      =   2.1000    
       ELAPSED SYSTEM TIME (SEC)    =  0.10000    
       ELAPSED TOTAL CPU TIME (SEC) =   2.2000    
       ELAPSED WALLCLOCK TIME (SEC) =          2

               CONVERGENCE CHECKS FOR EQUILIBRIUM ITERATION     2


 AVERAGE FORCE                       309.       TIME AVG. FORCE        165.    
 LARGEST RESIDUAL FORCE             1.395E-02   AT NODE       5739   DOF  1
 LARGEST INCREMENT OF DISP.        -2.756E-05   AT NODE        152   DOF  1
 LARGEST CORRECTION TO DISP.        1.206E-07   AT NODE      27892   DOF  3
          THE FORCE     EQUILIBRIUM EQUATIONS HAVE CONVERGED

 AVERAGE MOMENT                     3.840E-02   TIME AVG. MOMENT      2.029E-02
 LARGEST RESIDUAL MOMENT           -1.738E-06   AT NODE        150   DOF  5
 LARGEST INCREMENT OF ROTATION      2.239E-04   AT NODE          1   DOF  5
 LARGEST CORRECTION TO ROTATION    -6.183E-07   AT NODE       7774   DOF  4
          THE MOMENT    EQUILIBRIUM EQUATIONS HAVE CONVERGED
          ARC LENGTH INCREMENT MAY NOW INCREASE TO    0.169    

 ITERATION SUMMARY FOR THE INCREMENT:   2 TOTAL ITERATIONS, OF WHICH
   0 ARE SEVERE DISCONTINUITY ITERATIONS AND  2 ARE EQUILIBRIUM ITERATIONS.


                                INCREMENT     4 SUMMARY


     CURRENT LOAD PROPORTIONALITY FACTOR         0.2870    
     TOTAL ARC LENGTH   0.288    , INCREMENT OF ARC LENGTH   0.113    


  INCREMENT     5 STARTS. ATTEMPT NUMBER  1
 
	SYMMETRIC DIRECT SPARSE SOLVER RUNNING ON
 	1 HOST:        1 MPI RANK  x 1 THREAD
 	NUMBER OF EQUATIONS:     172692
 	NUMBER OF RHS:           2
 	NUMBER OF FLOPS:         2.561e+10

     CHECK POINT   START OF SOLVER    

     CHECK POINT  END OF SOLVER       

       ELAPSED USER TIME (SEC)      =   2.0000    
       ELAPSED SYSTEM TIME (SEC)    =  0.10000    
       ELAPSED TOTAL CPU TIME (SEC) =   2.1000    
       ELAPSED WALLCLOCK TIME (SEC) =          3

               CONVERGENCE CHECKS FOR EQUILIBRIUM ITERATION     1


 AVERAGE FORCE                       483.       TIME AVG. FORCE        229.    
 LARGEST RESIDUAL FORCE              12.8       AT NODE       5899   DOF  1
 LARGEST INCREMENT OF DISP.        -4.131E-05   AT NODE        152   DOF  1
 LARGEST CORRECTION TO DISP.       -4.131E-05   AT NODE        152   DOF  1
          FORCE     EQUILIBRIUM NOT ACHIEVED WITHIN TOLERANCE.

 AVERAGE MOMENT                     6.064E-02   TIME AVG. MOMENT      2.836E-02
 LARGEST RESIDUAL MOMENT           -6.549E-03   AT NODE          2   DOF  5
 LARGEST INCREMENT OF ROTATION      3.354E-04   AT NODE          1   DOF  5
 LARGEST CORRECTION TO ROTATION     3.354E-04   AT NODE          1   DOF  5
          MOMENT    EQUILIBRIUM NOT ACHIEVED WITHIN TOLERANCE.
 
	SYMMETRIC DIRECT SPARSE SOLVER RUNNING ON
 	1 HOST:        1 MPI RANK  x 1 THREAD
 	NUMBER OF EQUATIONS:     172692
 	NUMBER OF RHS:           2
 	NUMBER OF FLOPS:         2.561e+10

     CHECK POINT   START OF SOLVER    

     CHECK POINT  END OF SOLVER       

       ELAPSED USER TIME (SEC)      =   2.0000    
       ELAPSED SYSTEM TIME (SEC)    =  0.10000    
       ELAPSED TOTAL CPU TIME (SEC) =   2.1000    
       ELAPSED WALLCLOCK TIME (SEC) =          2

               CONVERGENCE CHECKS FOR EQUILIBRIUM ITERATION     2


 AVERAGE FORCE                       483.       TIME AVG. FORCE        229.    
 LARGEST RESIDUAL FORCE             5.142E-02   AT NODE       5739   DOF  1
 LARGEST INCREMENT OF DISP.        -4.126E-05   AT NODE        152   DOF  1
 LARGEST CORRECTION TO DISP.        2.818E-07   AT NODE      27892   DOF  3
          THE FORCE     EQUILIBRIUM EQUATIONS HAVE CONVERGED

 AVERAGE MOMENT                     6.090E-02   TIME AVG. MOMENT      2.841E-02
 LARGEST RESIDUAL MOMENT           -9.889E-06   AT NODE       3928   DOF  4
 LARGEST INCREMENT OF ROTATION      3.349E-04   AT NODE          1   DOF  5
 LARGEST CORRECTION TO ROTATION    -1.446E-06   AT NODE       7774   DOF  4
          THE MOMENT    EQUILIBRIUM EQUATIONS HAVE CONVERGED
          ARC LENGTH INCREMENT MAY NOW INCREASE TO    0.253    

 ITERATION SUMMARY FOR THE INCREMENT:   2 TOTAL ITERATIONS, OF WHICH
   0 ARE SEVERE DISCONTINUITY ITERATIONS AND  2 ARE EQUILIBRIUM ITERATIONS.


                                INCREMENT     5 SUMMARY


     CURRENT LOAD PROPORTIONALITY FACTOR         0.4549    
     TOTAL ARC LENGTH   0.456    , INCREMENT OF ARC LENGTH   0.169    


  INCREMENT     6 STARTS. ATTEMPT NUMBER  1
 
	SYMMETRIC DIRECT SPARSE SOLVER RUNNING ON
 	1 HOST:        1 MPI RANK  x 1 THREAD
 	NUMBER OF EQUATIONS:     172692
 	NUMBER OF RHS:           2
 	NUMBER OF FLOPS:         2.561e+10

     CHECK POINT   START OF SOLVER    

     CHECK POINT  END OF SOLVER       

       ELAPSED USER TIME (SEC)      =   1.9000    
       ELAPSED SYSTEM TIME (SEC)    =  0.10000    
       ELAPSED TOTAL CPU TIME (SEC) =   2.0000    
       ELAPSED WALLCLOCK TIME (SEC) =          2

               CONVERGENCE CHECKS FOR EQUILIBRIUM ITERATION     1


 AVERAGE FORCE                       742.       TIME AVG. FORCE        314.    
 LARGEST RESIDUAL FORCE              31.1       AT NODE       5899   DOF  1
 LARGEST INCREMENT OF DISP.        -6.182E-05   AT NODE        152   DOF  1
 LARGEST CORRECTION TO DISP.       -6.182E-05   AT NODE        152   DOF  1
          FORCE     EQUILIBRIUM NOT ACHIEVED WITHIN TOLERANCE.

 AVERAGE MOMENT                     9.457E-02   TIME AVG. MOMENT      3.944E-02
 LARGEST RESIDUAL MOMENT           -1.500E-02   AT NODE          2   DOF  5
 LARGEST INCREMENT OF ROTATION      5.013E-04   AT NODE          1   DOF  5
 LARGEST CORRECTION TO ROTATION     5.013E-04   AT NODE          1   DOF  5
          MOMENT    EQUILIBRIUM NOT ACHIEVED WITHIN TOLERANCE.
 
	SYMMETRIC DIRECT SPARSE SOLVER RUNNING ON
 	1 HOST:        1 MPI RANK  x 1 THREAD
 	NUMBER OF EQUATIONS:     172692
 	NUMBER OF RHS:           2
 	NUMBER OF FLOPS:         2.561e+10

     CHECK POINT   START OF SOLVER    

     CHECK POINT  END OF SOLVER       

       ELAPSED USER TIME (SEC)      =   1.9000    
       ELAPSED SYSTEM TIME (SEC)    =  0.20000    
       ELAPSED TOTAL CPU TIME (SEC) =   2.1000    
       ELAPSED WALLCLOCK TIME (SEC) =          2

               CONVERGENCE CHECKS FOR EQUILIBRIUM ITERATION     2


 AVERAGE FORCE                       741.       TIME AVG. FORCE        314.    
 LARGEST RESIDUAL FORCE            -0.196       AT NODE       5899   DOF  1
 LARGEST INCREMENT OF DISP.        -6.170E-05   AT NODE        152   DOF  1
 LARGEST CORRECTION TO DISP.        6.709E-07   AT NODE      27892   DOF  3
 ESTIMATE OF DISP.    CORRECTION   -4.228E-09
 FORCE     EQUILIB. ACCEPTED BASED ON SMALL RESIDUAL AND ESTIMATED CORRECTION

 AVERAGE MOMENT                     9.515E-02   TIME AVG. MOMENT      3.954E-02
 LARGEST RESIDUAL MOMENT            2.480E-05   AT NODE          2   DOF  5
 LARGEST INCREMENT OF ROTATION      5.002E-04   AT NODE          1   DOF  5
 LARGEST CORRECTION TO ROTATION    -3.444E-06   AT NODE       7774   DOF  4
          THE MOMENT    EQUILIBRIUM EQUATIONS HAVE CONVERGED
          ARC LENGTH INCREMENT MAY NOW INCREASE TO    0.380    

 ITERATION SUMMARY FOR THE INCREMENT:   2 TOTAL ITERATIONS, OF WHICH
   0 ARE SEVERE DISCONTINUITY ITERATIONS AND  2 ARE EQUILIBRIUM ITERATIONS.


                                INCREMENT     6 SUMMARY


     CURRENT LOAD PROPORTIONALITY FACTOR         0.7060    
     TOTAL ARC LENGTH   0.709    , INCREMENT OF ARC LENGTH   0.253    


  INCREMENT     7 STARTS. ATTEMPT NUMBER  1
 
	SYMMETRIC DIRECT SPARSE SOLVER RUNNING ON
 	1 HOST:        1 MPI RANK  x 1 THREAD
 	NUMBER OF EQUATIONS:     172692
 	NUMBER OF RHS:           2
 	NUMBER OF FLOPS:         2.561e+10

     CHECK POINT   START OF SOLVER    

     CHECK POINT  END OF SOLVER       

       ELAPSED USER TIME (SEC)      =   2.0000    
       ELAPSED SYSTEM TIME (SEC)    =   0.0000    
       ELAPSED TOTAL CPU TIME (SEC) =   2.0000    
       ELAPSED WALLCLOCK TIME (SEC) =          2

               CONVERGENCE CHECKS FOR EQUILIBRIUM ITERATION     1


 AVERAGE FORCE                      1.124E+03   TIME AVG. FORCE        430.    
 LARGEST RESIDUAL FORCE              73.0       AT NODE       5899   DOF  1
 LARGEST INCREMENT OF DISP.        -9.235E-05   AT NODE        152   DOF  1
 LARGEST CORRECTION TO DISP.       -9.235E-05   AT NODE        152   DOF  1
          FORCE     EQUILIBRIUM NOT ACHIEVED WITHIN TOLERANCE.

 AVERAGE MOMENT                     0.147       TIME AVG. MOMENT      5.487E-02
 LARGEST RESIDUAL MOMENT           -3.393E-02   AT NODE          2   DOF  5
 LARGEST INCREMENT OF ROTATION      7.478E-04   AT NODE          1   DOF  5
 LARGEST CORRECTION TO ROTATION     7.478E-04   AT NODE          1   DOF  5
          MOMENT    EQUILIBRIUM NOT ACHIEVED WITHIN TOLERANCE.
 
	SYMMETRIC DIRECT SPARSE SOLVER RUNNING ON
 	1 HOST:        1 MPI RANK  x 1 THREAD
 	NUMBER OF EQUATIONS:     172692
 	NUMBER OF RHS:           2
 	NUMBER OF FLOPS:         2.561e+10

     CHECK POINT   START OF SOLVER    

     CHECK POINT  END OF SOLVER       

       ELAPSED USER TIME (SEC)      =   1.9000    
       ELAPSED SYSTEM TIME (SEC)    =  0.10000    
       ELAPSED TOTAL CPU TIME (SEC) =   2.0000    
       ELAPSED WALLCLOCK TIME (SEC) =          2

               CONVERGENCE CHECKS FOR EQUILIBRIUM ITERATION     2


 AVERAGE FORCE                      1.122E+03   TIME AVG. FORCE        429.    
 LARGEST RESIDUAL FORCE            -0.785       AT NODE       5899   DOF  1
 LARGEST INCREMENT OF DISP.        -9.203E-05   AT NODE        152   DOF  1
 LARGEST CORRECTION TO DISP.        1.643E-06   AT NODE      27892   DOF  3
 ESTIMATE OF DISP.    CORRECTION   -1.768E-08
 FORCE     EQUILIB. ACCEPTED BASED ON SMALL RESIDUAL AND ESTIMATED CORRECTION

 AVERAGE MOMENT                     0.148       TIME AVG. MOMENT      5.508E-02
 LARGEST RESIDUAL MOMENT            9.840E-05   AT NODE          2   DOF  5
 LARGEST INCREMENT OF ROTATION      7.448E-04   AT NODE          1   DOF  5
 LARGEST CORRECTION TO ROTATION    -8.447E-06   AT NODE       7774   DOF  4
          ROTATION CORRECTION TOO LARGE COMPARED TO ROTATION INCREMENT
 
	SYMMETRIC DIRECT SPARSE SOLVER RUNNING ON
 	1 HOST:        1 MPI RANK  x 1 THREAD
 	NUMBER OF EQUATIONS:     172692
 	NUMBER OF RHS:           2
 	NUMBER OF FLOPS:         2.561e+10

     CHECK POINT   START OF SOLVER    

     CHECK POINT  END OF SOLVER       

       ELAPSED USER TIME (SEC)      =   2.0000    
       ELAPSED SYSTEM TIME (SEC)    =  0.10000    
       ELAPSED TOTAL CPU TIME (SEC) =   2.1000    
       ELAPSED WALLCLOCK TIME (SEC) =          2

               CONVERGENCE CHECKS FOR EQUILIBRIUM ITERATION     3


 AVERAGE FORCE                      1.122E+03   TIME AVG. FORCE        429.    
 LARGEST RESIDUAL FORCE            -3.209E-04   AT NODE       5899   DOF  1
 LARGEST INCREMENT OF DISP.        -9.203E-05   AT NODE        152   DOF  1
 LARGEST CORRECTION TO DISP.       -4.341E-10   AT NODE      19101   DOF  3
          THE FORCE     EQUILIBRIUM EQUATIONS HAVE CONVERGED

 AVERAGE MOMENT                     0.148       TIME AVG. MOMENT      5.508E-02
 LARGEST RESIDUAL MOMENT           -2.171E-08   AT NODE       5589   DOF  5
 LARGEST INCREMENT OF ROTATION      7.448E-04   AT NODE          1   DOF  5
 LARGEST CORRECTION TO ROTATION     1.446E-09   AT NODE       7774   DOF  4
          THE MOMENT    EQUILIBRIUM EQUATIONS HAVE CONVERGED
          ARC LENGTH INCREMENT MAY NOW INCREASE TO    0.570    

 ITERATION SUMMARY FOR THE INCREMENT:   3 TOTAL ITERATIONS, OF WHICH
   0 ARE SEVERE DISCONTINUITY ITERATIONS AND  3 ARE EQUILIBRIUM ITERATIONS.


                                INCREMENT     7 SUMMARY


     CURRENT LOAD PROPORTIONALITY FACTOR          1.081    
     TOTAL ARC LENGTH    1.09    , INCREMENT OF ARC LENGTH   0.380    


  INCREMENT     8 STARTS. ATTEMPT NUMBER  1
 
	SYMMETRIC DIRECT SPARSE SOLVER RUNNING ON
 	1 HOST:        1 MPI RANK  x 1 THREAD
 	NUMBER OF EQUATIONS:     172692
 	NUMBER OF RHS:           2
 	NUMBER OF FLOPS:         2.561e+10

     CHECK POINT   START OF SOLVER    

     CHECK POINT  END OF SOLVER       

       ELAPSED USER TIME (SEC)      =   2.0000    
       ELAPSED SYSTEM TIME (SEC)    =  0.10000    
       ELAPSED TOTAL CPU TIME (SEC) =   2.1000    
       ELAPSED WALLCLOCK TIME (SEC) =          2

               CONVERGENCE CHECKS FOR EQUILIBRIUM ITERATION     1


 AVERAGE FORCE                      1.687E+03   TIME AVG. FORCE        587.    
 LARGEST RESIDUAL FORCE              168.       AT NODE       5899   DOF  1
 LARGEST INCREMENT OF DISP.        -1.375E-04   AT NODE        152   DOF  1
 LARGEST CORRECTION TO DISP.       -1.375E-04   AT NODE        152   DOF  1
          FORCE     EQUILIBRIUM NOT ACHIEVED WITHIN TOLERANCE.

 AVERAGE MOMENT                     0.230       TIME AVG. MOMENT      7.690E-02
 LARGEST RESIDUAL MOMENT           -7.588E-02   AT NODE          2   DOF  5
 LARGEST INCREMENT OF ROTATION      1.111E-03   AT NODE          1   DOF  5
 LARGEST CORRECTION TO ROTATION     1.111E-03   AT NODE          1   DOF  5
          MOMENT    EQUILIBRIUM NOT ACHIEVED WITHIN TOLERANCE.
 
	SYMMETRIC DIRECT SPARSE SOLVER RUNNING ON
 	1 HOST:        1 MPI RANK  x 1 THREAD
 	NUMBER OF EQUATIONS:     172692
 	NUMBER OF RHS:           2
 	NUMBER OF FLOPS:         2.561e+10

     CHECK POINT   START OF SOLVER    

     CHECK POINT  END OF SOLVER       

       ELAPSED USER TIME (SEC)      =   1.9000    
       ELAPSED SYSTEM TIME (SEC)    =  0.10000    
       ELAPSED TOTAL CPU TIME (SEC) =   2.0000    
       ELAPSED WALLCLOCK TIME (SEC) =          2

               CONVERGENCE CHECKS FOR EQUILIBRIUM ITERATION     2


 AVERAGE FORCE                      1.682E+03   TIME AVG. FORCE        586.    
 LARGEST RESIDUAL FORCE             -3.39       AT NODE       5899   DOF  1
 LARGEST INCREMENT OF DISP.        -1.366E-04   AT NODE        152   DOF  1
 LARGEST CORRECTION TO DISP.        4.196E-06   AT NODE      27892   DOF  3
          FORCE     EQUILIBRIUM NOT ACHIEVED WITHIN TOLERANCE.

 AVERAGE MOMENT                     0.233       TIME AVG. MOMENT      7.736E-02
 LARGEST RESIDUAL MOMENT            4.167E-04   AT NODE          2   DOF  5
 LARGEST INCREMENT OF ROTATION      1.102E-03   AT NODE          1   DOF  5
 LARGEST CORRECTION TO ROTATION    -2.163E-05   AT NODE       7774   DOF  4
          MOMENT    EQUILIBRIUM NOT ACHIEVED WITHIN TOLERANCE.
 
	SYMMETRIC DIRECT SPARSE SOLVER RUNNING ON
 	1 HOST:        1 MPI RANK  x 1 THREAD
 	NUMBER OF EQUATIONS:     172692
 	NUMBER OF RHS:           2
 	NUMBER OF FLOPS:         2.561e+10

     CHECK POINT   START OF SOLVER    

     CHECK POINT  END OF SOLVER       

       ELAPSED USER TIME (SEC)      =   2.0000    
       ELAPSED SYSTEM TIME (SEC)    =  0.10000    
       ELAPSED TOTAL CPU TIME (SEC) =   2.1000    
       ELAPSED WALLCLOCK TIME (SEC) =          2

               CONVERGENCE CHECKS FOR EQUILIBRIUM ITERATION     3


 AVERAGE FORCE                      1.682E+03   TIME AVG. FORCE        586.    
 LARGEST RESIDUAL FORCE             1.931E-03   AT NODE       7850   DOF  1
 LARGEST INCREMENT OF DISP.        -1.366E-04   AT NODE        152   DOF  1
 LARGEST CORRECTION TO DISP.       -2.417E-09   AT NODE      19101   DOF  3
          THE FORCE     EQUILIBRIUM EQUATIONS HAVE CONVERGED

 AVERAGE MOMENT                     0.233       TIME AVG. MOMENT      7.736E-02
 LARGEST RESIDUAL MOMENT           -2.309E-07   AT NODE       5589   DOF  5
 LARGEST INCREMENT OF ROTATION      1.102E-03   AT NODE          1   DOF  5
 LARGEST CORRECTION TO ROTATION     9.696E-09   AT NODE       7774   DOF  4
          THE MOMENT    EQUILIBRIUM EQUATIONS HAVE CONVERGED
          ARC LENGTH INCREMENT MAY NOW INCREASE TO    0.854    

 ITERATION SUMMARY FOR THE INCREMENT:   3 TOTAL ITERATIONS, OF WHICH
   0 ARE SEVERE DISCONTINUITY ITERATIONS AND  3 ARE EQUILIBRIUM ITERATIONS.


                                INCREMENT     8 SUMMARY


     CURRENT LOAD PROPORTIONALITY FACTOR          1.637    
     TOTAL ARC LENGTH    1.66    , INCREMENT OF ARC LENGTH   0.570    


  INCREMENT     9 STARTS. ATTEMPT NUMBER  1
 
	SYMMETRIC DIRECT SPARSE SOLVER RUNNING ON
 	1 HOST:        1 MPI RANK  x 1 THREAD
 	NUMBER OF EQUATIONS:     172692
 	NUMBER OF RHS:           2
 	NUMBER OF FLOPS:         2.561e+10

     CHECK POINT   START OF SOLVER    

     CHECK POINT  END OF SOLVER       

       ELAPSED USER TIME (SEC)      =   2.0000    
       ELAPSED SYSTEM TIME (SEC)    =   0.0000    
       ELAPSED TOTAL CPU TIME (SEC) =   2.0000    
       ELAPSED WALLCLOCK TIME (SEC) =          2

               CONVERGENCE CHECKS FOR EQUILIBRIUM ITERATION     1


 AVERAGE FORCE                      2.510E+03   TIME AVG. FORCE        800.    
 LARGEST RESIDUAL FORCE              379.       AT NODE       5899   DOF  1
 LARGEST INCREMENT OF DISP.        -2.034E-04   AT NODE        152   DOF  1
 LARGEST CORRECTION TO DISP.       -2.034E-04   AT NODE        152   DOF  1
          FORCE     EQUILIBRIUM NOT ACHIEVED WITHIN TOLERANCE.

 AVERAGE MOMENT                     0.365       TIME AVG. MOMENT      0.109    
 LARGEST RESIDUAL MOMENT           -0.166       AT NODE          2   DOF  5
 LARGEST INCREMENT OF ROTATION      1.636E-03   AT NODE          1   DOF  5
 LARGEST CORRECTION TO ROTATION     1.636E-03   AT NODE          1   DOF  5
          MOMENT    EQUILIBRIUM NOT ACHIEVED WITHIN TOLERANCE.
 
	SYMMETRIC DIRECT SPARSE SOLVER RUNNING ON
 	1 HOST:        1 MPI RANK  x 1 THREAD
 	NUMBER OF EQUATIONS:     172692
 	NUMBER OF RHS:           2
 	NUMBER OF FLOPS:         2.561e+10

     CHECK POINT   START OF SOLVER    

     CHECK POINT  END OF SOLVER       

       ELAPSED USER TIME (SEC)      =   2.0000    
       ELAPSED SYSTEM TIME (SEC)    =  0.20000    
       ELAPSED TOTAL CPU TIME (SEC) =   2.2000    
       ELAPSED WALLCLOCK TIME (SEC) =          2

               CONVERGENCE CHECKS FOR EQUILIBRIUM ITERATION     2


 AVERAGE FORCE                      2.496E+03   TIME AVG. FORCE        798.    
 LARGEST RESIDUAL FORCE             -16.3       AT NODE       5899   DOF  1
 LARGEST INCREMENT OF DISP.        -2.006E-04   AT NODE        152   DOF  1
 LARGEST CORRECTION TO DISP.        1.140E-05   AT NODE      28041   DOF  3
          FORCE     EQUILIBRIUM NOT ACHIEVED WITHIN TOLERANCE.

 AVERAGE MOMENT                     0.375       TIME AVG. MOMENT      0.110    
 LARGEST RESIDUAL MOMENT            1.944E-03   AT NODE          2   DOF  5
 LARGEST INCREMENT OF ROTATION      1.610E-03   AT NODE          1   DOF  5
 LARGEST CORRECTION TO ROTATION    -5.898E-05   AT NODE       7774   DOF  4
          MOMENT    EQUILIBRIUM NOT ACHIEVED WITHIN TOLERANCE.
 
	SYMMETRIC DIRECT SPARSE SOLVER RUNNING ON
 	1 HOST:        1 MPI RANK  x 1 THREAD
 	NUMBER OF EQUATIONS:     172692
 	NUMBER OF RHS:           2
 	NUMBER OF FLOPS:         2.561e+10

     CHECK POINT   START OF SOLVER    

     CHECK POINT  END OF SOLVER       

       ELAPSED USER TIME (SEC)      =   2.0000    
       ELAPSED SYSTEM TIME (SEC)    =  0.10000    
       ELAPSED TOTAL CPU TIME (SEC) =   2.1000    
       ELAPSED WALLCLOCK TIME (SEC) =          2

               CONVERGENCE CHECKS FOR EQUILIBRIUM ITERATION     3


 AVERAGE FORCE                      2.496E+03   TIME AVG. FORCE        798.    
 LARGEST RESIDUAL FORCE             1.266E-02   AT NODE       7850   DOF  1
 LARGEST INCREMENT OF DISP.        -2.006E-04   AT NODE        152   DOF  1
 LARGEST CORRECTION TO DISP.       -1.702E-08   AT NODE      19101   DOF  3
          THE FORCE     EQUILIBRIUM EQUATIONS HAVE CONVERGED

 AVERAGE MOMENT                     0.375       TIME AVG. MOMENT      0.110    
 LARGEST RESIDUAL MOMENT           -3.347E-06   AT NODE       5589   DOF  5
 LARGEST INCREMENT OF ROTATION      1.610E-03   AT NODE          1   DOF  5
 LARGEST CORRECTION TO ROTATION     8.192E-08   AT NODE       7774   DOF  4
          THE MOMENT    EQUILIBRIUM EQUATIONS HAVE CONVERGED
          ARC LENGTH INCREMENT MAY NOW INCREASE TO     1.28    

 ITERATION SUMMARY FOR THE INCREMENT:   3 TOTAL ITERATIONS, OF WHICH
   0 ARE SEVERE DISCONTINUITY ITERATIONS AND  3 ARE EQUILIBRIUM ITERATIONS.


                                INCREMENT     9 SUMMARY


     CURRENT LOAD PROPORTIONALITY FACTOR          2.453    
     TOTAL ARC LENGTH    2.51    , INCREMENT OF ARC LENGTH   0.854    


  INCREMENT    10 STARTS. ATTEMPT NUMBER  1
 
	SYMMETRIC DIRECT SPARSE SOLVER RUNNING ON
 	1 HOST:        1 MPI RANK  x 1 THREAD
 	NUMBER OF EQUATIONS:     172692
 	NUMBER OF RHS:           2
 	NUMBER OF FLOPS:         2.561e+10

     CHECK POINT   START OF SOLVER    

     CHECK POINT  END OF SOLVER       

       ELAPSED USER TIME (SEC)      =   2.1000    
       ELAPSED SYSTEM TIME (SEC)    =   0.0000    
       ELAPSED TOTAL CPU TIME (SEC) =   2.1000    
       ELAPSED WALLCLOCK TIME (SEC) =          2

               CONVERGENCE CHECKS FOR EQUILIBRIUM ITERATION     1


 AVERAGE FORCE                      3.688E+03   TIME AVG. FORCE       1.087E+03
 LARGEST RESIDUAL FORCE              830.       AT NODE       5899   DOF  1
 LARGEST INCREMENT OF DISP.        -2.956E-04   AT NODE        152   DOF  1
 LARGEST CORRECTION TO DISP.       -2.956E-04   AT NODE        152   DOF  1
          FORCE     EQUILIBRIUM NOT ACHIEVED WITHIN TOLERANCE.

 AVERAGE MOMENT                     0.604       TIME AVG. MOMENT      0.160    
 LARGEST RESIDUAL MOMENT           -0.352       AT NODE          2   DOF  5
 LARGEST INCREMENT OF ROTATION      2.360E-03   AT NODE          1   DOF  5
 LARGEST CORRECTION TO ROTATION     2.360E-03   AT NODE          1   DOF  5
          MOMENT    EQUILIBRIUM NOT ACHIEVED WITHIN TOLERANCE.
 
	SYMMETRIC DIRECT SPARSE SOLVER RUNNING ON
 	1 HOST:        1 MPI RANK  x 1 THREAD
 	NUMBER OF EQUATIONS:     172692
 	NUMBER OF RHS:           2
 	NUMBER OF FLOPS:         2.561e+10

     CHECK POINT   START OF SOLVER    

     CHECK POINT  END OF SOLVER       

       ELAPSED USER TIME (SEC)      =   2.0000    
       ELAPSED SYSTEM TIME (SEC)    =   0.0000    
       ELAPSED TOTAL CPU TIME (SEC) =   2.0000    
       ELAPSED WALLCLOCK TIME (SEC) =          2

               CONVERGENCE CHECKS FOR EQUILIBRIUM ITERATION     2


 AVERAGE FORCE                      3.643E+03   TIME AVG. FORCE       1.083E+03
 LARGEST RESIDUAL FORCE             -89.8       AT NODE       5899   DOF  1
 LARGEST INCREMENT OF DISP.        -2.857E-04   AT NODE        152   DOF  1
 LARGEST CORRECTION TO DISP.        3.328E-05   AT NODE      28041   DOF  3
          FORCE     EQUILIBRIUM NOT ACHIEVED WITHIN TOLERANCE.

 AVERAGE MOMENT                     0.634       TIME AVG. MOMENT      0.163    
 LARGEST RESIDUAL MOMENT            1.026E-02   AT NODE          2   DOF  5
 LARGEST INCREMENT OF ROTATION      2.269E-03   AT NODE          1   DOF  5
 LARGEST CORRECTION TO ROTATION    -1.732E-04   AT NODE       7774   DOF  4
          MOMENT    EQUILIBRIUM NOT ACHIEVED WITHIN TOLERANCE.
 
	SYMMETRIC DIRECT SPARSE SOLVER RUNNING ON
 	1 HOST:        1 MPI RANK  x 1 THREAD
 	NUMBER OF EQUATIONS:     172692
 	NUMBER OF RHS:           2
 	NUMBER OF FLOPS:         2.561e+10

     CHECK POINT   START OF SOLVER    

     CHECK POINT  END OF SOLVER       

       ELAPSED USER TIME (SEC)      =   2.0000    
       ELAPSED SYSTEM TIME (SEC)    =  0.10000    
       ELAPSED TOTAL CPU TIME (SEC) =   2.1000    
       ELAPSED WALLCLOCK TIME (SEC) =          2

               CONVERGENCE CHECKS FOR EQUILIBRIUM ITERATION     3


 AVERAGE FORCE                      3.644E+03   TIME AVG. FORCE       1.083E+03
 LARGEST RESIDUAL FORCE             0.438       AT NODE       5899   DOF  1
 LARGEST INCREMENT OF DISP.        -2.858E-04   AT NODE        152   DOF  1
 LARGEST CORRECTION TO DISP.       -1.746E-07   AT NODE      28041   DOF  3
          THE FORCE     EQUILIBRIUM EQUATIONS HAVE CONVERGED

 AVERAGE MOMENT                     0.634       TIME AVG. MOMENT      0.163    
 LARGEST RESIDUAL MOMENT           -7.000E-05   AT NODE       5589   DOF  5
 LARGEST INCREMENT OF ROTATION      2.269E-03   AT NODE          1   DOF  5
 LARGEST CORRECTION TO ROTATION     8.930E-07   AT NODE       7774   DOF  4
          THE MOMENT    EQUILIBRIUM EQUATIONS HAVE CONVERGED
          ARC LENGTH INCREMENT MAY NOW INCREASE TO     1.92    

 ITERATION SUMMARY FOR THE INCREMENT:   3 TOTAL ITERATIONS, OF WHICH
   0 ARE SEVERE DISCONTINUITY ITERATIONS AND  3 ARE EQUILIBRIUM ITERATIONS.


                                INCREMENT    10 SUMMARY


     CURRENT LOAD PROPORTIONALITY FACTOR          3.615    
     TOTAL ARC LENGTH    3.79    , INCREMENT OF ARC LENGTH    1.28    


  INCREMENT    11 STARTS. ATTEMPT NUMBER  1
 
	SYMMETRIC DIRECT SPARSE SOLVER RUNNING ON
 	1 HOST:        1 MPI RANK  x 1 THREAD
 	NUMBER OF EQUATIONS:     172692
 	NUMBER OF RHS:           2
 	NUMBER OF FLOPS:         2.561e+10

     CHECK POINT   START OF SOLVER    

     CHECK POINT  END OF SOLVER       

       ELAPSED USER TIME (SEC)      =   2.0000    
       ELAPSED SYSTEM TIME (SEC)    =  0.10000    
       ELAPSED TOTAL CPU TIME (SEC) =   2.1000    
       ELAPSED WALLCLOCK TIME (SEC) =          2

               CONVERGENCE CHECKS FOR EQUILIBRIUM ITERATION     1


 AVERAGE FORCE                      5.268E+03   TIME AVG. FORCE       1.463E+03
 LARGEST RESIDUAL FORCE             1.709E+03   AT NODE       5899   DOF  1
 LARGEST INCREMENT OF DISP.        -4.072E-04   AT NODE        152   DOF  1
 LARGEST CORRECTION TO DISP.       -4.072E-04   AT NODE        152   DOF  1
          FORCE     EQUILIBRIUM NOT ACHIEVED WITHIN TOLERANCE.

 AVERAGE MOMENT                      1.07       TIME AVG. MOMENT      0.245    
 LARGEST RESIDUAL MOMENT           -0.671       AT NODE          2   DOF  5
 LARGEST INCREMENT OF ROTATION      3.198E-03   AT NODE          1   DOF  5
 LARGEST CORRECTION TO ROTATION     3.198E-03   AT NODE          1   DOF  5
          MOMENT    EQUILIBRIUM NOT ACHIEVED WITHIN TOLERANCE.
 
	SYMMETRIC DIRECT SPARSE SOLVER RUNNING ON
 	1 HOST:        1 MPI RANK  x 1 THREAD
 	NUMBER OF EQUATIONS:     172692
 	NUMBER OF RHS:           2
 	NUMBER OF FLOPS:         2.561e+10

     CHECK POINT   START OF SOLVER    

     CHECK POINT  END OF SOLVER       

       ELAPSED USER TIME (SEC)      =   2.0000    
       ELAPSED SYSTEM TIME (SEC)    =  0.10000    
       ELAPSED TOTAL CPU TIME (SEC) =   2.1000    
       ELAPSED WALLCLOCK TIME (SEC) =          2

               CONVERGENCE CHECKS FOR EQUILIBRIUM ITERATION     2


 AVERAGE FORCE                      5.103E+03   TIME AVG. FORCE       1.448E+03
 LARGEST RESIDUAL FORCE             -536.       AT NODE       5899   DOF  1
 LARGEST INCREMENT OF DISP.         4.767E-04   AT NODE      28041   DOF  3
 LARGEST CORRECTION TO DISP.        9.519E-05   AT NODE      28041   DOF  3
          FORCE     EQUILIBRIUM NOT ACHIEVED WITHIN TOLERANCE.

 AVERAGE MOMENT                      1.16       TIME AVG. MOMENT      0.253    
 LARGEST RESIDUAL MOMENT            5.684E-02   AT NODE          2   DOF  5
 LARGEST INCREMENT OF ROTATION      2.838E-03   AT NODE          1   DOF  5
 LARGEST CORRECTION TO ROTATION    -4.989E-04   AT NODE       7774   DOF  4
          MOMENT    EQUILIBRIUM NOT ACHIEVED WITHIN TOLERANCE.
 
	SYMMETRIC DIRECT SPARSE SOLVER RUNNING ON
 	1 HOST:        1 MPI RANK  x 1 THREAD
 	NUMBER OF EQUATIONS:     172692
 	NUMBER OF RHS:           2
 	NUMBER OF FLOPS:         2.561e+10

     CHECK POINT   START OF SOLVER    

     CHECK POINT  END OF SOLVER       

       ELAPSED USER TIME (SEC)      =   2.0000    
       ELAPSED SYSTEM TIME (SEC)    =  0.10000    
       ELAPSED TOTAL CPU TIME (SEC) =   2.1000    
       ELAPSED WALLCLOCK TIME (SEC) =          2

               CONVERGENCE CHECKS FOR EQUILIBRIUM ITERATION     3


 AVERAGE FORCE                      5.109E+03   TIME AVG. FORCE       1.449E+03
 LARGEST RESIDUAL FORCE              12.8       AT NODE       5899   DOF  1
 LARGEST INCREMENT OF DISP.         4.749E-04   AT NODE      28041   DOF  3
 LARGEST CORRECTION TO DISP.       -1.743E-06   AT NODE      28041   DOF  3
          FORCE     EQUILIBRIUM NOT ACHIEVED WITHIN TOLERANCE.

 AVERAGE MOMENT                      1.16       TIME AVG. MOMENT      0.253    
 LARGEST RESIDUAL MOMENT           -1.633E-03   AT NODE       5589   DOF  5
 LARGEST INCREMENT OF ROTATION      2.846E-03   AT NODE          1   DOF  5
 LARGEST CORRECTION TO ROTATION     9.147E-06   AT NODE       7774   DOF  4
          MOMENT    EQUILIBRIUM NOT ACHIEVED WITHIN TOLERANCE.
 
	SYMMETRIC DIRECT SPARSE SOLVER RUNNING ON
 	1 HOST:        1 MPI RANK  x 1 THREAD
 	NUMBER OF EQUATIONS:     172692
 	NUMBER OF RHS:           2
 	NUMBER OF FLOPS:         2.561e+10

     CHECK POINT   START OF SOLVER    

     CHECK POINT  END OF SOLVER       

       ELAPSED USER TIME (SEC)      =   2.0000    
       ELAPSED SYSTEM TIME (SEC)    =  0.10000    
       ELAPSED TOTAL CPU TIME (SEC) =   2.1000    
       ELAPSED WALLCLOCK TIME (SEC) =          2

               CONVERGENCE CHECKS FOR EQUILIBRIUM ITERATION     4


 AVERAGE FORCE                      5.109E+03   TIME AVG. FORCE       1.449E+03
 LARGEST RESIDUAL FORCE            -2.041E-02   AT NODE       7850   DOF  1
 LARGEST INCREMENT OF DISP.         4.749E-04   AT NODE      28041   DOF  3
 LARGEST CORRECTION TO DISP.        1.170E-08   AT NODE      23571   DOF  3
          THE FORCE     EQUILIBRIUM EQUATIONS HAVE CONVERGED

 AVERAGE MOMENT                      1.16       TIME AVG. MOMENT      0.253    
 LARGEST RESIDUAL MOMENT           -2.929E-06   AT NODE        150   DOF  5
 LARGEST INCREMENT OF ROTATION      2.846E-03   AT NODE          1   DOF  5
 LARGEST CORRECTION TO ROTATION    -5.035E-08   AT NODE       7746   DOF  4
          THE MOMENT    EQUILIBRIUM EQUATIONS HAVE CONVERGED
          ARC LENGTH INCREMENT MAY NOW INCREASE TO     2.88    

 ITERATION SUMMARY FOR THE INCREMENT:   4 TOTAL ITERATIONS, OF WHICH
   0 ARE SEVERE DISCONTINUITY ITERATIONS AND  4 ARE EQUILIBRIUM ITERATIONS.


                                INCREMENT    11 SUMMARY


     CURRENT LOAD PROPORTIONALITY FACTOR          5.109    
     TOTAL ARC LENGTH    5.72    , INCREMENT OF ARC LENGTH    1.92    


  INCREMENT    12 STARTS. ATTEMPT NUMBER  1
 
	SYMMETRIC DIRECT SPARSE SOLVER RUNNING ON
 	1 HOST:        1 MPI RANK  x 1 THREAD
 	NUMBER OF EQUATIONS:     172692
 	NUMBER OF RHS:           2
 	NUMBER OF FLOPS:         2.561e+10

     CHECK POINT   START OF SOLVER    

     CHECK POINT  END OF SOLVER       

       ELAPSED USER TIME (SEC)      =   2.1000    
       ELAPSED SYSTEM TIME (SEC)    =  0.10000    
       ELAPSED TOTAL CPU TIME (SEC) =   2.2000    
       ELAPSED WALLCLOCK TIME (SEC) =          3

               CONVERGENCE CHECKS FOR EQUILIBRIUM ITERATION     1


 AVERAGE FORCE                      6.890E+03   TIME AVG. FORCE       1.902E+03
 LARGEST RESIDUAL FORCE             2.899E+03   AT NODE       5899   DOF  1
 LARGEST INCREMENT OF DISP.         8.270E-04   AT NODE      28041   DOF  3
 LARGEST CORRECTION TO DISP.        8.270E-04   AT NODE      28041   DOF  3
          FORCE     EQUILIBRIUM NOT ACHIEVED WITHIN TOLERANCE.

 AVERAGE MOMENT                      2.04       TIME AVG. MOMENT      0.402    
 LARGEST RESIDUAL MOMENT           -0.913       AT NODE          2   DOF  5
 LARGEST INCREMENT OF ROTATION     -4.329E-03   AT NODE       7774   DOF  4
 LARGEST CORRECTION TO ROTATION    -4.329E-03   AT NODE       7774   DOF  4
          MOMENT    EQUILIBRIUM NOT ACHIEVED WITHIN TOLERANCE.
 
	SYMMETRIC DIRECT SPARSE SOLVER RUNNING ON
 	1 HOST:        1 MPI RANK  x 1 THREAD
 	NUMBER OF EQUATIONS:     172692
 	NUMBER OF RHS:           2
 	NUMBER OF FLOPS:         2.561e+10

     CHECK POINT   START OF SOLVER    

     CHECK POINT  END OF SOLVER       

       ELAPSED USER TIME (SEC)      =   2.0000    
       ELAPSED SYSTEM TIME (SEC)    =  0.10000    
       ELAPSED TOTAL CPU TIME (SEC) =   2.1000    
       ELAPSED WALLCLOCK TIME (SEC) =          2

               CONVERGENCE CHECKS FOR EQUILIBRIUM ITERATION     2


 AVERAGE FORCE                      6.407E+03   TIME AVG. FORCE       1.862E+03
 LARGEST RESIDUAL FORCE            -2.001E+03   AT NODE       5899   DOF  1
 LARGEST INCREMENT OF DISP.         9.602E-04   AT NODE      28041   DOF  3
 LARGEST CORRECTION TO DISP.        1.424E-04   AT NODE      19101   DOF  3
          FORCE     EQUILIBRIUM NOT ACHIEVED WITHIN TOLERANCE.

 AVERAGE MOMENT                      2.18       TIME AVG. MOMENT      0.414    
 LARGEST RESIDUAL MOMENT            0.207       AT NODE       3926   DOF  5
 LARGEST INCREMENT OF ROTATION     -5.024E-03   AT NODE       7774   DOF  4
 LARGEST CORRECTION TO ROTATION     1.014E-03   AT NODE       2114   DOF  5
          MOMENT    EQUILIBRIUM NOT ACHIEVED WITHIN TOLERANCE.
 
	SYMMETRIC DIRECT SPARSE SOLVER RUNNING ON
 	1 HOST:        1 MPI RANK  x 1 THREAD
 	NUMBER OF EQUATIONS:     172692
 	NUMBER OF RHS:           2
 	NUMBER OF FLOPS:         2.561e+10

     CHECK POINT   START OF SOLVER    

     CHECK POINT  END OF SOLVER       

       ELAPSED USER TIME (SEC)      =   2.0000    
       ELAPSED SYSTEM TIME (SEC)    =  0.10000    
       ELAPSED TOTAL CPU TIME (SEC) =   2.1000    
       ELAPSED WALLCLOCK TIME (SEC) =          2

               CONVERGENCE CHECKS FOR EQUILIBRIUM ITERATION     3


 AVERAGE FORCE                      6.428E+03   TIME AVG. FORCE       1.864E+03
 LARGEST RESIDUAL FORCE              67.4       AT NODE       5899   DOF  1
 LARGEST INCREMENT OF DISP.         9.590E-04   AT NODE      28041   DOF  3
 LARGEST CORRECTION TO DISP.       -5.112E-06   AT NODE       5739   DOF  1
          FORCE     EQUILIBRIUM NOT ACHIEVED WITHIN TOLERANCE.

 AVERAGE MOMENT                      2.17       TIME AVG. MOMENT      0.413    
 LARGEST RESIDUAL MOMENT            8.863E-03   AT NODE       5737   DOF  5
 LARGEST INCREMENT OF ROTATION     -5.018E-03   AT NODE       7774   DOF  4
 LARGEST CORRECTION TO ROTATION    -3.681E-05   AT NODE       2114   DOF  5
          MOMENT    EQUILIBRIUM NOT ACHIEVED WITHIN TOLERANCE.
 
	SYMMETRIC DIRECT SPARSE SOLVER RUNNING ON
 	1 HOST:        1 MPI RANK  x 1 THREAD
 	NUMBER OF EQUATIONS:     172692
 	NUMBER OF RHS:           2
 	NUMBER OF FLOPS:         2.561e+10

     CHECK POINT   START OF SOLVER    

     CHECK POINT  END OF SOLVER       

       ELAPSED USER TIME (SEC)      =   2.0000    
       ELAPSED SYSTEM TIME (SEC)    =  0.10000    
       ELAPSED TOTAL CPU TIME (SEC) =   2.1000    
       ELAPSED WALLCLOCK TIME (SEC) =          2

               CONVERGENCE CHECKS FOR EQUILIBRIUM ITERATION     4


 AVERAGE FORCE                      6.428E+03   TIME AVG. FORCE       1.864E+03
 LARGEST RESIDUAL FORCE             0.179       AT NODE       5899   DOF  1
 LARGEST INCREMENT OF DISP.         9.589E-04   AT NODE      28041   DOF  3
 LARGEST CORRECTION TO DISP.        1.007E-07   AT NODE      14631   DOF  3
          THE FORCE     EQUILIBRIUM EQUATIONS HAVE CONVERGED

 AVERAGE MOMENT                      2.17       TIME AVG. MOMENT      0.413    
 LARGEST RESIDUAL MOMENT           -8.850E-06   AT NODE        151   DOF  4
 LARGEST INCREMENT OF ROTATION     -5.018E-03   AT NODE       7774   DOF  4
 LARGEST CORRECTION TO ROTATION     4.504E-07   AT NODE       7448   DOF  4
          THE MOMENT    EQUILIBRIUM EQUATIONS HAVE CONVERGED
          ARC LENGTH INCREMENT MAY NOW INCREASE TO     4.32    

 ITERATION SUMMARY FOR THE INCREMENT:   4 TOTAL ITERATIONS, OF WHICH
   0 ARE SEVERE DISCONTINUITY ITERATIONS AND  4 ARE EQUILIBRIUM ITERATIONS.


                                INCREMENT    12 SUMMARY


     CURRENT LOAD PROPORTIONALITY FACTOR          6.527    
     TOTAL ARC LENGTH    8.60    , INCREMENT OF ARC LENGTH    2.88    


  INCREMENT    13 STARTS. ATTEMPT NUMBER  1
 
	SYMMETRIC DIRECT SPARSE SOLVER RUNNING ON
 	1 HOST:        1 MPI RANK  x 1 THREAD
 	NUMBER OF EQUATIONS:     172692
 	NUMBER OF RHS:           2
 	NUMBER OF FLOPS:         2.561e+10

     CHECK POINT   START OF SOLVER    

     CHECK POINT  END OF SOLVER       

       ELAPSED USER TIME (SEC)      =   2.0000    
       ELAPSED SYSTEM TIME (SEC)    =  0.10000    
       ELAPSED TOTAL CPU TIME (SEC) =   2.1000    
       ELAPSED WALLCLOCK TIME (SEC) =          2

               CONVERGENCE CHECKS FOR EQUILIBRIUM ITERATION     1


 AVERAGE FORCE                      7.757E+03   TIME AVG. FORCE       2.317E+03
 LARGEST RESIDUAL FORCE            -1.115E+04   AT NODE       7700   DOF  1
 LARGEST INCREMENT OF DISP.         1.479E-03   AT NODE      28041   DOF  3
 LARGEST CORRECTION TO DISP.        1.479E-03   AT NODE      28041   DOF  3
          FORCE     EQUILIBRIUM NOT ACHIEVED WITHIN TOLERANCE.

 AVERAGE MOMENT                      3.75       TIME AVG. MOMENT      0.670    
 LARGEST RESIDUAL MOMENT           -0.636       AT NODE          2   DOF  5
 LARGEST INCREMENT OF ROTATION     -7.734E-03   AT NODE       7774   DOF  4
 LARGEST CORRECTION TO ROTATION    -7.734E-03   AT NODE       7774   DOF  4
          MOMENT    EQUILIBRIUM NOT ACHIEVED WITHIN TOLERANCE.
 
	SYMMETRIC DIRECT SPARSE SOLVER RUNNING ON
 	1 HOST:        1 MPI RANK  x 1 THREAD
 	NUMBER OF EQUATIONS:     172692
 	NUMBER OF RHS:           2
 	NUMBER OF FLOPS:         2.561e+10

     CHECK POINT   START OF SOLVER    

     CHECK POINT  END OF SOLVER       

       ELAPSED USER TIME (SEC)      =   1.9000    
       ELAPSED SYSTEM TIME (SEC)    =  0.20000    
       ELAPSED TOTAL CPU TIME (SEC) =   2.1000    
       ELAPSED WALLCLOCK TIME (SEC) =          2

               CONVERGENCE CHECKS FOR EQUILIBRIUM ITERATION     2


 AVERAGE FORCE                      7.302E+03   TIME AVG. FORCE       2.282E+03
 LARGEST RESIDUAL FORCE            -2.020E+03   AT NODE       5899   DOF  1
 LARGEST INCREMENT OF DISP.         1.472E-03   AT NODE      19101   DOF  3
 LARGEST CORRECTION TO DISP.       -1.168E-04   AT NODE        312   DOF  1
          FORCE     EQUILIBRIUM NOT ACHIEVED WITHIN TOLERANCE.

 AVERAGE MOMENT                      3.72       TIME AVG. MOMENT      0.667    
 LARGEST RESIDUAL MOMENT            0.220       AT NODE       3926   DOF  5
 LARGEST INCREMENT OF ROTATION     -7.405E-03   AT NODE       7774   DOF  4
 LARGEST CORRECTION TO ROTATION     1.024E-03   AT NODE       2114   DOF  5
          MOMENT    EQUILIBRIUM NOT ACHIEVED WITHIN TOLERANCE.
 
	SYMMETRIC DIRECT SPARSE SOLVER RUNNING ON
 	1 HOST:        1 MPI RANK  x 1 THREAD
 	NUMBER OF EQUATIONS:     172692
 	NUMBER OF RHS:           2
 	NUMBER OF FLOPS:         2.561e+10

     CHECK POINT   START OF SOLVER    

     CHECK POINT  END OF SOLVER       

       ELAPSED USER TIME (SEC)      =   1.9000    
       ELAPSED SYSTEM TIME (SEC)    =  0.10000    
       ELAPSED TOTAL CPU TIME (SEC) =   2.0000    
       ELAPSED WALLCLOCK TIME (SEC) =          2

               CONVERGENCE CHECKS FOR EQUILIBRIUM ITERATION     3


 AVERAGE FORCE                      7.304E+03   TIME AVG. FORCE       2.282E+03
 LARGEST RESIDUAL FORCE             -5.61       AT NODE       7700   DOF  1
 LARGEST INCREMENT OF DISP.         1.470E-03   AT NODE      19101   DOF  3
 LARGEST CORRECTION TO DISP.       -1.283E-05   AT NODE      28068   DOF  3
          THE FORCE     EQUILIBRIUM EQUATIONS HAVE CONVERGED

 AVERAGE MOMENT                      3.73       TIME AVG. MOMENT      0.668    
 LARGEST RESIDUAL MOMENT            8.107E-04   AT NODE        150   DOF  5
 LARGEST INCREMENT OF ROTATION     -7.467E-03   AT NODE       7774   DOF  4
 LARGEST CORRECTION TO ROTATION     7.016E-05   AT NODE       7747   DOF  4
          THE MOMENT    EQUILIBRIUM EQUATIONS HAVE CONVERGED
          ARC LENGTH INCREMENT MAY NOW INCREASE TO     6.49    

 ITERATION SUMMARY FOR THE INCREMENT:   3 TOTAL ITERATIONS, OF WHICH
   0 ARE SEVERE DISCONTINUITY ITERATIONS AND  3 ARE EQUILIBRIUM ITERATIONS.


                                INCREMENT    13 SUMMARY


     CURRENT LOAD PROPORTIONALITY FACTOR          7.467    
     TOTAL ARC LENGTH    12.9    , INCREMENT OF ARC LENGTH    4.32    


  INCREMENT    14 STARTS. ATTEMPT NUMBER  1
 
	SYMMETRIC DIRECT SPARSE SOLVER RUNNING ON
 	1 HOST:        1 MPI RANK  x 1 THREAD
 	NUMBER OF EQUATIONS:     172692
 	NUMBER OF RHS:           2
 	NUMBER OF FLOPS:         2.561e+10

     CHECK POINT   START OF SOLVER    

     CHECK POINT  END OF SOLVER       

       ELAPSED USER TIME (SEC)      =   1.9000    
       ELAPSED SYSTEM TIME (SEC)    =  0.10000    
       ELAPSED TOTAL CPU TIME (SEC) =   2.0000    
       ELAPSED WALLCLOCK TIME (SEC) =          2

               CONVERGENCE CHECKS FOR EQUILIBRIUM ITERATION     1


 AVERAGE FORCE                      8.150E+03   TIME AVG. FORCE       2.701E+03
 LARGEST RESIDUAL FORCE            -2.596E+04   AT NODE       7700   DOF  1
 LARGEST INCREMENT OF DISP.         2.236E-03   AT NODE      19101   DOF  3
 LARGEST CORRECTION TO DISP.        2.236E-03   AT NODE      19101   DOF  3
          FORCE     EQUILIBRIUM NOT ACHIEVED WITHIN TOLERANCE.

 AVERAGE MOMENT                      5.92       TIME AVG. MOMENT       1.04    
 LARGEST RESIDUAL MOMENT           -0.412       AT NODE       2114   DOF  5
 LARGEST INCREMENT OF ROTATION     -1.028E-02   AT NODE       7774   DOF  4
 LARGEST CORRECTION TO ROTATION    -1.028E-02   AT NODE       7774   DOF  4
          MOMENT    EQUILIBRIUM NOT ACHIEVED WITHIN TOLERANCE.
 
	SYMMETRIC DIRECT SPARSE SOLVER RUNNING ON
 	1 HOST:        1 MPI RANK  x 1 THREAD
 	NUMBER OF EQUATIONS:     172692
 	NUMBER OF RHS:           2
 	NUMBER OF FLOPS:         2.561e+10

     CHECK POINT   START OF SOLVER    

     CHECK POINT  END OF SOLVER       

       ELAPSED USER TIME (SEC)      =   1.9000    
       ELAPSED SYSTEM TIME (SEC)    =  0.10000    
       ELAPSED TOTAL CPU TIME (SEC) =   2.0000    
       ELAPSED WALLCLOCK TIME (SEC) =          2

               CONVERGENCE CHECKS FOR EQUILIBRIUM ITERATION     2


 AVERAGE FORCE                      7.898E+03   TIME AVG. FORCE       2.683E+03
 LARGEST RESIDUAL FORCE             1.100E+03   AT NODE       5739   DOF  1
 LARGEST INCREMENT OF DISP.         2.239E-03   AT NODE      19101   DOF  3
 LARGEST CORRECTION TO DISP.        2.384E-04   AT NODE      28069   DOF  3
          FORCE     EQUILIBRIUM NOT ACHIEVED WITHIN TOLERANCE.

 AVERAGE MOMENT                      5.71       TIME AVG. MOMENT       1.03    
 LARGEST RESIDUAL MOMENT           -0.132       AT NODE        150   DOF  5
 LARGEST INCREMENT OF ROTATION      9.182E-03   AT NODE       7476   DOF  4
 LARGEST CORRECTION TO ROTATION    -1.254E-03   AT NODE       7746   DOF  4
          MOMENT    EQUILIBRIUM NOT ACHIEVED WITHIN TOLERANCE.
 
	SYMMETRIC DIRECT SPARSE SOLVER RUNNING ON
 	1 HOST:        1 MPI RANK  x 1 THREAD
 	NUMBER OF EQUATIONS:     172692
 	NUMBER OF RHS:           2
 	NUMBER OF FLOPS:         2.561e+10

     CHECK POINT   START OF SOLVER    

     CHECK POINT  END OF SOLVER       

       ELAPSED USER TIME (SEC)      =   2.0000    
       ELAPSED SYSTEM TIME (SEC)    =  0.10000    
       ELAPSED TOTAL CPU TIME (SEC) =   2.1000    
       ELAPSED WALLCLOCK TIME (SEC) =          2

               CONVERGENCE CHECKS FOR EQUILIBRIUM ITERATION     3


 AVERAGE FORCE                      7.901E+03   TIME AVG. FORCE       2.683E+03
 LARGEST RESIDUAL FORCE             -5.04       AT NODE       7700   DOF  1
 LARGEST INCREMENT OF DISP.         2.245E-03   AT NODE      19101   DOF  3
 LARGEST CORRECTION TO DISP.       -9.653E-06   AT NODE      14633   DOF  3
          THE FORCE     EQUILIBRIUM EQUATIONS HAVE CONVERGED

 AVERAGE MOMENT                      5.72       TIME AVG. MOMENT       1.03    
 LARGEST RESIDUAL MOMENT           -7.131E-04   AT NODE        152   DOF  4
 LARGEST INCREMENT OF ROTATION      9.163E-03   AT NODE       7476   DOF  4
 LARGEST CORRECTION TO ROTATION    -4.835E-05   AT NODE      19143   DOF  5
          THE MOMENT    EQUILIBRIUM EQUATIONS HAVE CONVERGED
          ARC LENGTH INCREMENT MAY NOW INCREASE TO     9.73    

 ITERATION SUMMARY FOR THE INCREMENT:   3 TOTAL ITERATIONS, OF WHICH
   0 ARE SEVERE DISCONTINUITY ITERATIONS AND  3 ARE EQUILIBRIUM ITERATIONS.


                                INCREMENT    14 SUMMARY


     CURRENT LOAD PROPORTIONALITY FACTOR          8.075    
     TOTAL ARC LENGTH    19.4    , INCREMENT OF ARC LENGTH    6.49    


  INCREMENT    15 STARTS. ATTEMPT NUMBER  1
 
	SYMMETRIC DIRECT SPARSE SOLVER RUNNING ON
 	1 HOST:        1 MPI RANK  x 1 THREAD
 	NUMBER OF EQUATIONS:     172692
 	NUMBER OF RHS:           2
 	NUMBER OF FLOPS:         2.561e+10

     CHECK POINT   START OF SOLVER    

     CHECK POINT  END OF SOLVER       

       ELAPSED USER TIME (SEC)      =   2.1000    
       ELAPSED SYSTEM TIME (SEC)    =  0.10000    
       ELAPSED TOTAL CPU TIME (SEC) =   2.2000    
       ELAPSED WALLCLOCK TIME (SEC) =          2

               CONVERGENCE CHECKS FOR EQUILIBRIUM ITERATION     1


 AVERAGE FORCE                      8.528E+03   TIME AVG. FORCE       3.073E+03
 LARGEST RESIDUAL FORCE            -4.385E+04   AT NODE       7700   DOF  1
 LARGEST INCREMENT OF DISP.         3.300E-03   AT NODE      19101   DOF  3
 LARGEST CORRECTION TO DISP.        3.300E-03   AT NODE      19101   DOF  3
          FORCE     EQUILIBRIUM NOT ACHIEVED WITHIN TOLERANCE.

 AVERAGE MOMENT                      8.40       TIME AVG. MOMENT       1.52    
 LARGEST RESIDUAL MOMENT           -0.501       AT NODE       2407   DOF  6
 LARGEST INCREMENT OF ROTATION      1.208E-02   AT NODE       7476   DOF  4
 LARGEST CORRECTION TO ROTATION     1.208E-02   AT NODE       7476   DOF  4
          MOMENT    EQUILIBRIUM NOT ACHIEVED WITHIN TOLERANCE.
 
	SYMMETRIC DIRECT SPARSE SOLVER RUNNING ON
 	1 HOST:        1 MPI RANK  x 1 THREAD
 	NUMBER OF EQUATIONS:     172692
 	NUMBER OF RHS:           2
 	NUMBER OF FLOPS:         2.561e+10

     CHECK POINT   START OF SOLVER    

     CHECK POINT  END OF SOLVER       

       ELAPSED USER TIME (SEC)      =   2.1000    
       ELAPSED SYSTEM TIME (SEC)    =   0.0000    
       ELAPSED TOTAL CPU TIME (SEC) =   2.1000    
       ELAPSED WALLCLOCK TIME (SEC) =          2

               CONVERGENCE CHECKS FOR EQUILIBRIUM ITERATION     2


 AVERAGE FORCE                      8.398E+03   TIME AVG. FORCE       3.064E+03
 LARGEST RESIDUAL FORCE             -672.       AT NODE       7700   DOF  1
 LARGEST INCREMENT OF DISP.         3.194E-03   AT NODE      19101   DOF  3
 LARGEST CORRECTION TO DISP.        2.848E-04   AT NODE      10190   DOF  3
          FORCE     EQUILIBRIUM NOT ACHIEVED WITHIN TOLERANCE.

 AVERAGE MOMENT                      8.07       TIME AVG. MOMENT       1.50    
 LARGEST RESIDUAL MOMENT           -8.261E-02   AT NODE        150   DOF  5
 LARGEST INCREMENT OF ROTATION      1.071E-02   AT NODE       7476   DOF  4
 LARGEST CORRECTION TO ROTATION     1.505E-03   AT NODE       7505   DOF  4
          MOMENT    EQUILIBRIUM NOT ACHIEVED WITHIN TOLERANCE.
 
	SYMMETRIC DIRECT SPARSE SOLVER RUNNING ON
 	1 HOST:        1 MPI RANK  x 1 THREAD
 	NUMBER OF EQUATIONS:     172692
 	NUMBER OF RHS:           2
 	NUMBER OF FLOPS:         2.561e+10

     CHECK POINT   START OF SOLVER    

     CHECK POINT  END OF SOLVER       

       ELAPSED USER TIME (SEC)      =   2.0000    
       ELAPSED SYSTEM TIME (SEC)    =  0.10000    
       ELAPSED TOTAL CPU TIME (SEC) =   2.1000    
       ELAPSED WALLCLOCK TIME (SEC) =          2

               CONVERGENCE CHECKS FOR EQUILIBRIUM ITERATION     3


 AVERAGE FORCE                      8.405E+03   TIME AVG. FORCE       3.065E+03
 LARGEST RESIDUAL FORCE              22.7       AT NODE       5899   DOF  1
 LARGEST INCREMENT OF DISP.         3.200E-03   AT NODE      19101   DOF  3
 LARGEST CORRECTION TO DISP.        1.345E-05   AT NODE      19047   DOF  3
          FORCE     EQUILIBRIUM NOT ACHIEVED WITHIN TOLERANCE.

 AVERAGE MOMENT                      8.07       TIME AVG. MOMENT       1.50    
 LARGEST RESIDUAL MOMENT            3.750E-03   AT NODE       3925   DOF  5
 LARGEST INCREMENT OF ROTATION      1.062E-02   AT NODE       7476   DOF  4
 LARGEST CORRECTION TO ROTATION    -8.785E-05   AT NODE       7476   DOF  4
          THE MOMENT    EQUILIBRIUM EQUATIONS HAVE CONVERGED
 
	SYMMETRIC DIRECT SPARSE SOLVER RUNNING ON
 	1 HOST:        1 MPI RANK  x 1 THREAD
 	NUMBER OF EQUATIONS:     172692
 	NUMBER OF RHS:           2
 	NUMBER OF FLOPS:         2.561e+10

     CHECK POINT   START OF SOLVER    

     CHECK POINT  END OF SOLVER       

       ELAPSED USER TIME (SEC)      =   2.0000    
       ELAPSED SYSTEM TIME (SEC)    =  0.10000    
       ELAPSED TOTAL CPU TIME (SEC) =   2.1000    
       ELAPSED WALLCLOCK TIME (SEC) =          2

               CONVERGENCE CHECKS FOR EQUILIBRIUM ITERATION     4


 AVERAGE FORCE                      8.405E+03   TIME AVG. FORCE       3.065E+03
 LARGEST RESIDUAL FORCE             0.129       AT NODE       5899   DOF  1
 LARGEST INCREMENT OF DISP.         3.200E-03   AT NODE      19101   DOF  3
 LARGEST CORRECTION TO DISP.       -7.334E-08   AT NODE      10011   DOF  3
          THE FORCE     EQUILIBRIUM EQUATIONS HAVE CONVERGED

 AVERAGE MOMENT                      8.07       TIME AVG. MOMENT       1.50    
 LARGEST RESIDUAL MOMENT            6.094E-06   AT NODE       3925   DOF  5
 LARGEST INCREMENT OF ROTATION      1.062E-02   AT NODE       7476   DOF  4
 LARGEST CORRECTION TO ROTATION    -4.550E-07   AT NODE       7476   DOF  4
          THE MOMENT    EQUILIBRIUM EQUATIONS HAVE CONVERGED
          ARC LENGTH INCREMENT MAY NOW INCREASE TO     14.6    

 ITERATION SUMMARY FOR THE INCREMENT:   4 TOTAL ITERATIONS, OF WHICH
   0 ARE SEVERE DISCONTINUITY ITERATIONS AND  4 ARE EQUILIBRIUM ITERATIONS.


                                INCREMENT    15 SUMMARY


     CURRENT LOAD PROPORTIONALITY FACTOR          8.531    
     TOTAL ARC LENGTH    29.1    , INCREMENT OF ARC LENGTH    9.73    


  INCREMENT    16 STARTS. ATTEMPT NUMBER  1
 
	SYMMETRIC DIRECT SPARSE SOLVER RUNNING ON
 	1 HOST:        1 MPI RANK  x 1 THREAD
 	NUMBER OF EQUATIONS:     172692
 	NUMBER OF RHS:           2
 	NUMBER OF FLOPS:         2.561e+10

     CHECK POINT   START OF SOLVER    

     CHECK POINT  END OF SOLVER       

       ELAPSED USER TIME (SEC)      =   2.0000    
       ELAPSED SYSTEM TIME (SEC)    =  0.10000    
       ELAPSED TOTAL CPU TIME (SEC) =   2.1000    
       ELAPSED WALLCLOCK TIME (SEC) =          2

               CONVERGENCE CHECKS FOR EQUILIBRIUM ITERATION     1


 AVERAGE FORCE                      8.965E+03   TIME AVG. FORCE       3.434E+03
 LARGEST RESIDUAL FORCE            -6.959E+04   AT NODE       7700   DOF  1
 LARGEST INCREMENT OF DISP.         4.606E-03   AT NODE      19101   DOF  3
 LARGEST CORRECTION TO DISP.        4.606E-03   AT NODE      19101   DOF  3
          FORCE     EQUILIBRIUM NOT ACHIEVED WITHIN TOLERANCE.

 AVERAGE MOMENT                      11.2       TIME AVG. MOMENT       2.10    
 LARGEST RESIDUAL MOMENT             1.12       AT NODE       2295   DOF  6
 LARGEST INCREMENT OF ROTATION      1.411E-02   AT NODE       7476   DOF  4
 LARGEST CORRECTION TO ROTATION     1.411E-02   AT NODE       7476   DOF  4
          MOMENT    EQUILIBRIUM NOT ACHIEVED WITHIN TOLERANCE.
 
	SYMMETRIC DIRECT SPARSE SOLVER RUNNING ON
 	1 HOST:        1 MPI RANK  x 1 THREAD
 	NUMBER OF EQUATIONS:     172692
 	NUMBER OF RHS:           2
 	NUMBER OF FLOPS:         2.561e+10

     CHECK POINT   START OF SOLVER    

     CHECK POINT  END OF SOLVER       

       ELAPSED USER TIME (SEC)      =   2.0000    
       ELAPSED SYSTEM TIME (SEC)    =   0.0000    
       ELAPSED TOTAL CPU TIME (SEC) =   2.0000    
       ELAPSED WALLCLOCK TIME (SEC) =          2

               CONVERGENCE CHECKS FOR EQUILIBRIUM ITERATION     2


 AVERAGE FORCE                      8.905E+03   TIME AVG. FORCE       3.430E+03
 LARGEST RESIDUAL FORCE             -934.       AT NODE       7700   DOF  1
 LARGEST INCREMENT OF DISP.         4.408E-03   AT NODE      19101   DOF  3
 LARGEST CORRECTION TO DISP.        2.955E-04   AT NODE      14632   DOF  3
          FORCE     EQUILIBRIUM NOT ACHIEVED WITHIN TOLERANCE.

 AVERAGE MOMENT                      10.8       TIME AVG. MOMENT       2.08    
 LARGEST RESIDUAL MOMENT            6.019E-02   AT NODE       3777   DOF  5
 LARGEST INCREMENT OF ROTATION      1.281E-02   AT NODE       7476   DOF  4
 LARGEST CORRECTION TO ROTATION     1.483E-03   AT NODE       7448   DOF  4
          MOMENT    EQUILIBRIUM NOT ACHIEVED WITHIN TOLERANCE.
 
	SYMMETRIC DIRECT SPARSE SOLVER RUNNING ON
 	1 HOST:        1 MPI RANK  x 1 THREAD
 	NUMBER OF EQUATIONS:     172692
 	NUMBER OF RHS:           2
 	NUMBER OF FLOPS:         2.561e+10

     CHECK POINT   START OF SOLVER    

     CHECK POINT  END OF SOLVER       

       ELAPSED USER TIME (SEC)      =   1.9000    
       ELAPSED SYSTEM TIME (SEC)    =  0.10000    
       ELAPSED TOTAL CPU TIME (SEC) =   2.0000    
       ELAPSED WALLCLOCK TIME (SEC) =          2

               CONVERGENCE CHECKS FOR EQUILIBRIUM ITERATION     3


 AVERAGE FORCE                      8.918E+03   TIME AVG. FORCE       3.431E+03
 LARGEST RESIDUAL FORCE             -40.5       AT NODE       5739   DOF  1
 LARGEST INCREMENT OF DISP.         4.408E-03   AT NODE      19101   DOF  3
 LARGEST CORRECTION TO DISP.        1.367E-05   AT NODE      19050   DOF  3
          FORCE     EQUILIBRIUM NOT ACHIEVED WITHIN TOLERANCE.

 AVERAGE MOMENT                      10.8       TIME AVG. MOMENT       2.08    
 LARGEST RESIDUAL MOMENT           -6.395E-03   AT NODE       3777   DOF  5
 LARGEST INCREMENT OF ROTATION      1.272E-02   AT NODE       7476   DOF  4
 LARGEST CORRECTION TO ROTATION    -8.849E-05   AT NODE       7476   DOF  4
          THE MOMENT    EQUILIBRIUM EQUATIONS HAVE CONVERGED
 
	SYMMETRIC DIRECT SPARSE SOLVER RUNNING ON
 	1 HOST:        1 MPI RANK  x 1 THREAD
 	NUMBER OF EQUATIONS:     172692
 	NUMBER OF RHS:           2
 	NUMBER OF FLOPS:         2.561e+10

     CHECK POINT   START OF SOLVER    

     CHECK POINT  END OF SOLVER       

       ELAPSED USER TIME (SEC)      =   2.1000    
       ELAPSED SYSTEM TIME (SEC)    =   0.0000    
       ELAPSED TOTAL CPU TIME (SEC) =   2.1000    
       ELAPSED WALLCLOCK TIME (SEC) =          2

               CONVERGENCE CHECKS FOR EQUILIBRIUM ITERATION     4


 AVERAGE FORCE                      8.918E+03   TIME AVG. FORCE       3.431E+03
 LARGEST RESIDUAL FORCE             0.259       AT NODE       5899   DOF  1
 LARGEST INCREMENT OF DISP.         4.408E-03   AT NODE      19101   DOF  3
 LARGEST CORRECTION TO DISP.       -7.570E-08   AT NODE      10009   DOF  3
          THE FORCE     EQUILIBRIUM EQUATIONS HAVE CONVERGED

 AVERAGE MOMENT                      10.8       TIME AVG. MOMENT       2.08    
 LARGEST RESIDUAL MOMENT           -1.616E-05   AT NODE       3777   DOF  5
 LARGEST INCREMENT OF ROTATION      1.272E-02   AT NODE       7476   DOF  4
 LARGEST CORRECTION TO ROTATION    -4.696E-07   AT NODE       7474   DOF  4
          THE MOMENT    EQUILIBRIUM EQUATIONS HAVE CONVERGED
          ARC LENGTH INCREMENT MAY NOW INCREASE TO     21.9    

 ITERATION SUMMARY FOR THE INCREMENT:   4 TOTAL ITERATIONS, OF WHICH
   0 ARE SEVERE DISCONTINUITY ITERATIONS AND  4 ARE EQUILIBRIUM ITERATIONS.


                                INCREMENT    16 SUMMARY


     CURRENT LOAD PROPORTIONALITY FACTOR          8.933    
     TOTAL ARC LENGTH    43.7    , INCREMENT OF ARC LENGTH    14.6    


  INCREMENT    17 STARTS. ATTEMPT NUMBER  1
 
	SYMMETRIC DIRECT SPARSE SOLVER RUNNING ON
 	1 HOST:        1 MPI RANK  x 1 THREAD
 	NUMBER OF EQUATIONS:     172692
 	NUMBER OF RHS:           2
 	NUMBER OF FLOPS:         2.561e+10

     CHECK POINT   START OF SOLVER    

     CHECK POINT  END OF SOLVER       

       ELAPSED USER TIME (SEC)      =   2.0000    
       ELAPSED SYSTEM TIME (SEC)    =  0.20000    
       ELAPSED TOTAL CPU TIME (SEC) =   2.2000    
       ELAPSED WALLCLOCK TIME (SEC) =          2

               CONVERGENCE CHECKS FOR EQUILIBRIUM ITERATION     1


 AVERAGE FORCE                      9.518E+03   TIME AVG. FORCE       3.789E+03
 LARGEST RESIDUAL FORCE            -1.139E+05   AT NODE       7700   DOF  1
 LARGEST INCREMENT OF DISP.         6.326E-03   AT NODE      19101   DOF  3
 LARGEST CORRECTION TO DISP.        6.326E-03   AT NODE      19101   DOF  3
          FORCE     EQUILIBRIUM NOT ACHIEVED WITHIN TOLERANCE.

 AVERAGE MOMENT                      14.3       TIME AVG. MOMENT       2.80    
 LARGEST RESIDUAL MOMENT             2.24       AT NODE       2296   DOF  6
 LARGEST INCREMENT OF ROTATION      1.743E-02   AT NODE       7476   DOF  4
 LARGEST CORRECTION TO ROTATION     1.743E-02   AT NODE       7476   DOF  4
          MOMENT    EQUILIBRIUM NOT ACHIEVED WITHIN TOLERANCE.
 
	SYMMETRIC DIRECT SPARSE SOLVER RUNNING ON
 	1 HOST:        1 MPI RANK  x 1 THREAD
 	NUMBER OF EQUATIONS:     172692
 	NUMBER OF RHS:           2
 	NUMBER OF FLOPS:         2.561e+10

     CHECK POINT   START OF SOLVER    

     CHECK POINT  END OF SOLVER       

       ELAPSED USER TIME (SEC)      =   2.1000    
       ELAPSED SYSTEM TIME (SEC)    =  0.10000    
       ELAPSED TOTAL CPU TIME (SEC) =   2.2000    
       ELAPSED WALLCLOCK TIME (SEC) =          2

               CONVERGENCE CHECKS FOR EQUILIBRIUM ITERATION     2


 AVERAGE FORCE                      9.506E+03   TIME AVG. FORCE       3.788E+03
 LARGEST RESIDUAL FORCE            -1.191E+03   AT NODE       7700   DOF  1
 LARGEST INCREMENT OF DISP.         6.062E-03   AT NODE      19101   DOF  3
 LARGEST CORRECTION TO DISP.        3.025E-04   AT NODE      19073   DOF  3
          FORCE     EQUILIBRIUM NOT ACHIEVED WITHIN TOLERANCE.

 AVERAGE MOMENT                      13.8       TIME AVG. MOMENT       2.77    
 LARGEST RESIDUAL MOMENT            5.550E-02   AT NODE       3777   DOF  5
 LARGEST INCREMENT OF ROTATION      1.628E-02   AT NODE       7476   DOF  4
 LARGEST CORRECTION TO ROTATION     1.628E-03   AT NODE      14647   DOF  5
          MOMENT    EQUILIBRIUM NOT ACHIEVED WITHIN TOLERANCE.
 
	SYMMETRIC DIRECT SPARSE SOLVER RUNNING ON
 	1 HOST:        1 MPI RANK  x 1 THREAD
 	NUMBER OF EQUATIONS:     172692
 	NUMBER OF RHS:           2
 	NUMBER OF FLOPS:         2.561e+10

     CHECK POINT   START OF SOLVER    

     CHECK POINT  END OF SOLVER       

       ELAPSED USER TIME (SEC)      =   2.0000    
       ELAPSED SYSTEM TIME (SEC)    =   0.0000    
       ELAPSED TOTAL CPU TIME (SEC) =   2.0000    
       ELAPSED WALLCLOCK TIME (SEC) =          2

               CONVERGENCE CHECKS FOR EQUILIBRIUM ITERATION     3


 AVERAGE FORCE                      9.521E+03   TIME AVG. FORCE       3.789E+03
 LARGEST RESIDUAL FORCE             -56.0       AT NODE       5739   DOF  1
 LARGEST INCREMENT OF DISP.         6.061E-03   AT NODE      19101   DOF  3
 LARGEST CORRECTION TO DISP.        1.195E-05   AT NODE      19058   DOF  3
          FORCE     EQUILIBRIUM NOT ACHIEVED WITHIN TOLERANCE.

 AVERAGE MOMENT                      13.8       TIME AVG. MOMENT       2.77    
 LARGEST RESIDUAL MOMENT           -8.688E-03   AT NODE       3777   DOF  5
 LARGEST INCREMENT OF ROTATION      1.619E-02   AT NODE       7476   DOF  4
 LARGEST CORRECTION TO ROTATION    -8.405E-05   AT NODE       7476   DOF  4
          THE MOMENT    EQUILIBRIUM EQUATIONS HAVE CONVERGED
 
	SYMMETRIC DIRECT SPARSE SOLVER RUNNING ON
 	1 HOST:        1 MPI RANK  x 1 THREAD
 	NUMBER OF EQUATIONS:     172692
 	NUMBER OF RHS:           2
 	NUMBER OF FLOPS:         2.561e+10

     CHECK POINT   START OF SOLVER    

     CHECK POINT  END OF SOLVER       

       ELAPSED USER TIME (SEC)      =   2.0000    
       ELAPSED SYSTEM TIME (SEC)    =  0.10000    
       ELAPSED TOTAL CPU TIME (SEC) =   2.1000    
       ELAPSED WALLCLOCK TIME (SEC) =          2

               CONVERGENCE CHECKS FOR EQUILIBRIUM ITERATION     4


 AVERAGE FORCE                      9.521E+03   TIME AVG. FORCE       3.789E+03
 LARGEST RESIDUAL FORCE             0.382       AT NODE       5899   DOF  1
 LARGEST INCREMENT OF DISP.         6.061E-03   AT NODE      19101   DOF  3
 LARGEST CORRECTION TO DISP.        1.592E-07   AT NODE       9973   DOF  3
          THE FORCE     EQUILIBRIUM EQUATIONS HAVE CONVERGED

 AVERAGE MOMENT                      13.8       TIME AVG. MOMENT       2.77    
 LARGEST RESIDUAL MOMENT           -2.568E-05   AT NODE       3777   DOF  5
 LARGEST INCREMENT OF ROTATION      1.619E-02   AT NODE       7476   DOF  4
 LARGEST CORRECTION TO ROTATION     9.256E-07   AT NODE       7437   DOF  4
          THE MOMENT    EQUILIBRIUM EQUATIONS HAVE CONVERGED
          ARC LENGTH INCREMENT MAY NOW INCREASE TO     32.8    

 ITERATION SUMMARY FOR THE INCREMENT:   4 TOTAL ITERATIONS, OF WHICH
   0 ARE SEVERE DISCONTINUITY ITERATIONS AND  4 ARE EQUILIBRIUM ITERATIONS.


                                INCREMENT    17 SUMMARY


     CURRENT LOAD PROPORTIONALITY FACTOR          9.333    
     TOTAL ARC LENGTH    65.6    , INCREMENT OF ARC LENGTH    21.9    


  INCREMENT    18 STARTS. ATTEMPT NUMBER  1
 
	SYMMETRIC DIRECT SPARSE SOLVER RUNNING ON
 	1 HOST:        1 MPI RANK  x 1 THREAD
 	NUMBER OF EQUATIONS:     172692
 	NUMBER OF RHS:           2
 	NUMBER OF FLOPS:         2.561e+10
[...]

       ELAPSED USER TIME (SEC)      =   2.0000    
       ELAPSED SYSTEM TIME (SEC)    =   0.0000    
       ELAPSED TOTAL CPU TIME (SEC) =   2.0000    
       ELAPSED WALLCLOCK TIME (SEC) =          2

               CONVERGENCE CHECKS FOR EQUILIBRIUM ITERATION     4


 AVERAGE FORCE                      1.030E+04   TIME AVG. FORCE       4.151E+03
 LARGEST RESIDUAL FORCE            -0.506       AT NODE       5739   DOF  1
 LARGEST INCREMENT OF DISP.         8.408E-03   AT NODE      19101   DOF  3
 LARGEST CORRECTION TO DISP.        5.165E-07   AT NODE       9972   DOF  3
          THE FORCE     EQUILIBRIUM EQUATIONS HAVE CONVERGED

 AVERAGE MOMENT                      17.3       TIME AVG. MOMENT       3.58    
 LARGEST RESIDUAL MOMENT           -3.451E-05   AT NODE       3777   DOF  5
 LARGEST INCREMENT OF ROTATION      2.180E-02   AT NODE       7475   DOF  4
 LARGEST CORRECTION TO ROTATION     2.980E-06   AT NODE       7436   DOF  4
          THE MOMENT    EQUILIBRIUM EQUATIONS HAVE CONVERGED
          ARC LENGTH INCREMENT MAY NOW INCREASE TO     49.3    

 ITERATION SUMMARY FOR THE INCREMENT:   4 TOTAL ITERATIONS, OF WHICH
   0 ARE SEVERE DISCONTINUITY ITERATIONS AND  4 ARE EQUILIBRIUM ITERATIONS.


                                INCREMENT    18 SUMMARY


     CURRENT LOAD PROPORTIONALITY FACTOR          9.761    
     TOTAL ARC LENGTH    98.5    , INCREMENT OF ARC LENGTH    32.8    


  INCREMENT    19 STARTS. ATTEMPT NUMBER  1
 
	SYMMETRIC DIRECT SPARSE SOLVER RUNNING ON
 	1 HOST:        1 MPI RANK  x 1 THREAD
 	NUMBER OF EQUATIONS:     172692
 	NUMBER OF RHS:           2
 	NUMBER OF FLOPS:         2.561e+10

     CHECK POINT   START OF SOLVER    

     CHECK POINT  END OF SOLVER       

       ELAPSED USER TIME (SEC)      =   2.0000    
       ELAPSED SYSTEM TIME (SEC)    =   0.0000    
       ELAPSED TOTAL CPU TIME (SEC) =   2.0000    
       ELAPSED WALLCLOCK TIME (SEC) =          2

               CONVERGENCE CHECKS FOR EQUILIBRIUM ITERATION     1


 AVERAGE FORCE                      1.141E+04   TIME AVG. FORCE       4.533E+03
 LARGEST RESIDUAL FORCE             3.938E+05   AT NODE       7850   DOF  1
 LARGEST INCREMENT OF DISP.         1.218E-02   AT NODE      19101   DOF  3
 LARGEST CORRECTION TO DISP.        1.218E-02   AT NODE      19101   DOF  3
          FORCE     EQUILIBRIUM NOT ACHIEVED WITHIN TOLERANCE.

 AVERAGE MOMENT                      22.1       TIME AVG. MOMENT       4.55    
 LARGEST RESIDUAL MOMENT             6.88       AT NODE       2298   DOF  6
 LARGEST INCREMENT OF ROTATION      3.151E-02   AT NODE       7475   DOF  4
 LARGEST CORRECTION TO ROTATION     3.151E-02   AT NODE       7475   DOF  4
          MOMENT    EQUILIBRIUM NOT ACHIEVED WITHIN TOLERANCE.
 
	SYMMETRIC DIRECT SPARSE SOLVER RUNNING ON
 	1 HOST:        1 MPI RANK  x 1 THREAD
 	NUMBER OF EQUATIONS:     172692
 	NUMBER OF RHS:           2
 	NUMBER OF FLOPS:         2.561e+10

     CHECK POINT   START OF SOLVER    

     CHECK POINT  END OF SOLVER       

       ELAPSED USER TIME (SEC)      =   2.0000    
       ELAPSED SYSTEM TIME (SEC)    =  0.10000    
       ELAPSED TOTAL CPU TIME (SEC) =   2.1000    
       ELAPSED WALLCLOCK TIME (SEC) =          2

               CONVERGENCE CHECKS FOR EQUILIBRIUM ITERATION     2


 AVERAGE FORCE                      1.155E+04   TIME AVG. FORCE       4.540E+03
 LARGEST RESIDUAL FORCE             -719.       AT NODE       7700   DOF  1
 LARGEST INCREMENT OF DISP.         1.179E-02   AT NODE      19100   DOF  3
 LARGEST CORRECTION TO DISP.       -3.930E-04   AT NODE      19101   DOF  3
          FORCE     EQUILIBRIUM NOT ACHIEVED WITHIN TOLERANCE.

 AVERAGE MOMENT                      21.6       TIME AVG. MOMENT       4.53    
 LARGEST RESIDUAL MOMENT           -0.134       AT NODE       8075   DOF  4
 LARGEST INCREMENT OF ROTATION      3.079E-02   AT NODE       7475   DOF  4
 LARGEST CORRECTION TO ROTATION     2.202E-03   AT NODE      19143   DOF  5
          MOMENT    EQUILIBRIUM NOT ACHIEVED WITHIN TOLERANCE.
 
	SYMMETRIC DIRECT SPARSE SOLVER RUNNING ON
 	1 HOST:        1 MPI RANK  x 1 THREAD
 	NUMBER OF EQUATIONS:     172692
 	NUMBER OF RHS:           2
 	NUMBER OF FLOPS:         2.561e+10

     CHECK POINT   START OF SOLVER    

     CHECK POINT  END OF SOLVER       

       ELAPSED USER TIME (SEC)      =   2.2000    
       ELAPSED SYSTEM TIME (SEC)    =  0.10000    
       ELAPSED TOTAL CPU TIME (SEC) =   2.3000    
       ELAPSED WALLCLOCK TIME (SEC) =          3

               CONVERGENCE CHECKS FOR EQUILIBRIUM ITERATION     3


 AVERAGE FORCE                      1.157E+04   TIME AVG. FORCE       4.541E+03
 LARGEST RESIDUAL FORCE             -75.6       AT NODE       5739   DOF  1
 LARGEST INCREMENT OF DISP.         1.177E-02   AT NODE      19100   DOF  3
 LARGEST CORRECTION TO DISP.        7.051E-05   AT NODE       9973   DOF  3
          FORCE     EQUILIBRIUM NOT ACHIEVED WITHIN TOLERANCE.

 AVERAGE MOMENT                      21.6       TIME AVG. MOMENT       4.53    
 LARGEST RESIDUAL MOMENT           -1.133E-02   AT NODE       5589   DOF  5
 LARGEST INCREMENT OF ROTATION      3.065E-02   AT NODE       7475   DOF  4
 LARGEST CORRECTION TO ROTATION     4.214E-04   AT NODE       7435   DOF  4
 ESTIMATE OF ROTATION CORRECTION    3.572E-05
 MOMENT    EQUILIB. ACCEPTED BASED ON SMALL RESIDUAL AND ESTIMATED CORRECTION
 
	SYMMETRIC DIRECT SPARSE SOLVER RUNNING ON
 	1 HOST:        1 MPI RANK  x 1 THREAD
 	NUMBER OF EQUATIONS:     172692
 	NUMBER OF RHS:           2
 	NUMBER OF FLOPS:         2.561e+10

     CHECK POINT   START OF SOLVER    

     CHECK POINT  END OF SOLVER       

       ELAPSED USER TIME (SEC)      =   2.0000    
       ELAPSED SYSTEM TIME (SEC)    =  0.10000    
       ELAPSED TOTAL CPU TIME (SEC) =   2.1000    
       ELAPSED WALLCLOCK TIME (SEC) =          2

               CONVERGENCE CHECKS FOR EQUILIBRIUM ITERATION     4


 AVERAGE FORCE                      1.157E+04   TIME AVG. FORCE       4.541E+03
 LARGEST RESIDUAL FORCE            -0.571       AT NODE       5739   DOF  1
 LARGEST INCREMENT OF DISP.         1.177E-02   AT NODE      19100   DOF  3
 LARGEST CORRECTION TO DISP.        1.545E-06   AT NODE       9973   DOF  3
          THE FORCE     EQUILIBRIUM EQUATIONS HAVE CONVERGED

 AVERAGE MOMENT                      21.6       TIME AVG. MOMENT       4.53    
 LARGEST RESIDUAL MOMENT            7.404E-05   AT NODE       1964   DOF  4
 LARGEST INCREMENT OF ROTATION      3.065E-02   AT NODE       7475   DOF  4
 LARGEST CORRECTION TO ROTATION     9.132E-06   AT NODE       7437   DOF  4
          THE MOMENT    EQUILIBRIUM EQUATIONS HAVE CONVERGED
          ARC LENGTH INCREMENT MAY NOW INCREASE TO     73.9    

 ITERATION SUMMARY FOR THE INCREMENT:   4 TOTAL ITERATIONS, OF WHICH
   0 ARE SEVERE DISCONTINUITY ITERATIONS AND  4 ARE EQUILIBRIUM ITERATIONS.


                                INCREMENT    19 SUMMARY


     CURRENT LOAD PROPORTIONALITY FACTOR          10.25    
     TOTAL ARC LENGTH    148.    , INCREMENT OF ARC LENGTH    49.3    


  INCREMENT    20 STARTS. ATTEMPT NUMBER  1
 
	SYMMETRIC DIRECT SPARSE SOLVER RUNNING ON
 	1 HOST:        1 MPI RANK  x 1 THREAD
 	NUMBER OF EQUATIONS:     172692
 	NUMBER OF RHS:           2
 	NUMBER OF FLOPS:         2.561e+10

     CHECK POINT   START OF SOLVER    

     CHECK POINT  END OF SOLVER       

       ELAPSED USER TIME (SEC)      =   1.9000    
       ELAPSED SYSTEM TIME (SEC)    =  0.30000    
       ELAPSED TOTAL CPU TIME (SEC) =   2.2000    
       ELAPSED WALLCLOCK TIME (SEC) =          2

               CONVERGENCE CHECKS FOR EQUILIBRIUM ITERATION     1


 AVERAGE FORCE                      1.325E+04   TIME AVG. FORCE       4.976E+03
 LARGEST RESIDUAL FORCE             8.970E+05   AT NODE       7850   DOF  1
 LARGEST INCREMENT OF DISP.         1.713E-02   AT NODE      19100   DOF  3
 LARGEST CORRECTION TO DISP.        1.713E-02   AT NODE      19100   DOF  3
          FORCE     EQUILIBRIUM NOT ACHIEVED WITHIN TOLERANCE.

 AVERAGE MOMENT                      27.6       TIME AVG. MOMENT       5.68    
 LARGEST RESIDUAL MOMENT            -12.6       AT NODE        416   DOF  6
 LARGEST INCREMENT OF ROTATION      4.502E-02   AT NODE       7474   DOF  4
 LARGEST CORRECTION TO ROTATION     4.502E-02   AT NODE       7474   DOF  4
          MOMENT    EQUILIBRIUM NOT ACHIEVED WITHIN TOLERANCE.
 
	SYMMETRIC DIRECT SPARSE SOLVER RUNNING ON
 	1 HOST:        1 MPI RANK  x 1 THREAD
 	NUMBER OF EQUATIONS:     172692
 	NUMBER OF RHS:           2
 	NUMBER OF FLOPS:         2.561e+10

     CHECK POINT   START OF SOLVER    

     CHECK POINT  END OF SOLVER       

       ELAPSED USER TIME (SEC)      =   1.9000    
       ELAPSED SYSTEM TIME (SEC)    =  0.20000    
       ELAPSED TOTAL CPU TIME (SEC) =   2.1000    
       ELAPSED WALLCLOCK TIME (SEC) =          2

               CONVERGENCE CHECKS FOR EQUILIBRIUM ITERATION     2


 AVERAGE FORCE                      1.355E+04   TIME AVG. FORCE       4.992E+03
 LARGEST RESIDUAL FORCE              848.       AT NODE       7850   DOF  1
 LARGEST INCREMENT OF DISP.         1.666E-02   AT NODE      19100   DOF  3
 LARGEST CORRECTION TO DISP.        5.458E-04   AT NODE      10794   DOF  3
          FORCE     EQUILIBRIUM NOT ACHIEVED WITHIN TOLERANCE.

 AVERAGE MOMENT                      27.2       TIME AVG. MOMENT       5.66    
 LARGEST RESIDUAL MOMENT           -0.265       AT NODE       8075   DOF  4
 LARGEST INCREMENT OF ROTATION      4.454E-02   AT NODE       7473   DOF  4
 LARGEST CORRECTION TO ROTATION     3.328E-03   AT NODE      27638   DOF  5
          MOMENT    EQUILIBRIUM NOT ACHIEVED WITHIN TOLERANCE.
 
	SYMMETRIC DIRECT SPARSE SOLVER RUNNING ON
 	1 HOST:        1 MPI RANK  x 1 THREAD
 	NUMBER OF EQUATIONS:     172692
 	NUMBER OF RHS:           2
 	NUMBER OF FLOPS:         2.561e+10

     CHECK POINT   START OF SOLVER    

     CHECK POINT  END OF SOLVER       

       ELAPSED USER TIME (SEC)      =   1.9000    
       ELAPSED SYSTEM TIME (SEC)    =  0.20000    
       ELAPSED TOTAL CPU TIME (SEC) =   2.1000    
       ELAPSED WALLCLOCK TIME (SEC) =          3

               CONVERGENCE CHECKS FOR EQUILIBRIUM ITERATION     3


 AVERAGE FORCE                      1.355E+04   TIME AVG. FORCE       4.992E+03
 LARGEST RESIDUAL FORCE              84.5       AT NODE       7437   DOF  2
 LARGEST INCREMENT OF DISP.         1.661E-02   AT NODE      19100   DOF  3
 LARGEST CORRECTION TO DISP.        3.074E-04   AT NODE       9974   DOF  3
          FORCE     EQUILIBRIUM NOT ACHIEVED WITHIN TOLERANCE.

 AVERAGE MOMENT                      27.1       TIME AVG. MOMENT       5.66    
 LARGEST RESIDUAL MOMENT           -1.440E-02   AT NODE       8035   DOF  5
 LARGEST INCREMENT OF ROTATION      4.422E-02   AT NODE       7473   DOF  4
 LARGEST CORRECTION TO ROTATION     1.933E-03   AT NODE       7437   DOF  4
 ESTIMATE OF ROTATION CORRECTION    1.049E-04
 MOMENT    EQUILIB. ACCEPTED BASED ON SMALL RESIDUAL AND ESTIMATED CORRECTION
 
	SYMMETRIC DIRECT SPARSE SOLVER RUNNING ON
 	1 HOST:        1 MPI RANK  x 1 THREAD
 	NUMBER OF EQUATIONS:     172692
 	NUMBER OF RHS:           2
 	NUMBER OF FLOPS:         2.561e+10

     CHECK POINT   START OF SOLVER    

     CHECK POINT  END OF SOLVER       

       ELAPSED USER TIME (SEC)      =   2.0000    
       ELAPSED SYSTEM TIME (SEC)    =  0.10000    
       ELAPSED TOTAL CPU TIME (SEC) =   2.1000    
       ELAPSED WALLCLOCK TIME (SEC) =          2

               CONVERGENCE CHECKS FOR EQUILIBRIUM ITERATION     4


 AVERAGE FORCE                      1.355E+04   TIME AVG. FORCE       4.992E+03
 LARGEST RESIDUAL FORCE            -0.100       AT NODE       3927   DOF  3
 LARGEST INCREMENT OF DISP.         1.661E-02   AT NODE      19100   DOF  3
 LARGEST CORRECTION TO DISP.        8.298E-06   AT NODE       9976   DOF  3
          THE FORCE     EQUILIBRIUM EQUATIONS HAVE CONVERGED

 AVERAGE MOMENT                      27.1       TIME AVG. MOMENT       5.66    
 LARGEST RESIDUAL MOMENT            4.018E-04   AT NODE       7437   DOF  5
 LARGEST INCREMENT OF ROTATION      4.421E-02   AT NODE       7473   DOF  4
 LARGEST CORRECTION TO ROTATION     5.188E-05   AT NODE       7439   DOF  4
          THE MOMENT    EQUILIBRIUM EQUATIONS HAVE CONVERGED
          ARC LENGTH INCREMENT MAY NOW INCREASE TO     111.    

 ITERATION SUMMARY FOR THE INCREMENT:   4 TOTAL ITERATIONS, OF WHICH
   0 ARE SEVERE DISCONTINUITY ITERATIONS AND  4 ARE EQUILIBRIUM ITERATIONS.


                                INCREMENT    20 SUMMARY


     CURRENT LOAD PROPORTIONALITY FACTOR          10.84    
     TOTAL ARC LENGTH    222.    , INCREMENT OF ARC LENGTH    73.9    


  INCREMENT    21 STARTS. ATTEMPT NUMBER  1
 
	SYMMETRIC DIRECT SPARSE SOLVER RUNNING ON
 	1 HOST:        1 MPI RANK  x 1 THREAD
 	NUMBER OF EQUATIONS:     172692
 	NUMBER OF RHS:           2
 	NUMBER OF FLOPS:         2.561e+10

     CHECK POINT   START OF SOLVER    

     CHECK POINT  END OF SOLVER       

       ELAPSED USER TIME (SEC)      =   1.9000    
       ELAPSED SYSTEM TIME (SEC)    =  0.10000    
       ELAPSED TOTAL CPU TIME (SEC) =   2.0000    
       ELAPSED WALLCLOCK TIME (SEC) =          2

               CONVERGENCE CHECKS FOR EQUILIBRIUM ITERATION     1


 AVERAGE FORCE                      1.604E+04   TIME AVG. FORCE       5.518E+03
 LARGEST RESIDUAL FORCE             2.236E+06   AT NODE       7850   DOF  1
 LARGEST INCREMENT OF DISP.         2.424E-02   AT NODE      19100   DOF  3
 LARGEST CORRECTION TO DISP.        2.424E-02   AT NODE      19100   DOF  3
          FORCE     EQUILIBRIUM NOT ACHIEVED WITHIN TOLERANCE.

 AVERAGE MOMENT                      35.4       TIME AVG. MOMENT       7.07    
 LARGEST RESIDUAL MOMENT            -30.9       AT NODE       8071   DOF  4
 LARGEST INCREMENT OF ROTATION      6.530E-02   AT NODE       7472   DOF  4
 LARGEST CORRECTION TO ROTATION     6.530E-02   AT NODE       7472   DOF  4
          MOMENT    EQUILIBRIUM NOT ACHIEVED WITHIN TOLERANCE.
 
	SYMMETRIC DIRECT SPARSE SOLVER RUNNING ON
 	1 HOST:        1 MPI RANK  x 1 THREAD
 	NUMBER OF EQUATIONS:     172692
 	NUMBER OF RHS:           2
 	NUMBER OF FLOPS:         2.561e+10

     CHECK POINT   START OF SOLVER    

     CHECK POINT  END OF SOLVER       

       ELAPSED USER TIME (SEC)      =   2.0000    
       ELAPSED SYSTEM TIME (SEC)    =   0.0000    
       ELAPSED TOTAL CPU TIME (SEC) =   2.0000    
       ELAPSED WALLCLOCK TIME (SEC) =          2

               CONVERGENCE CHECKS FOR EQUILIBRIUM ITERATION     2


 AVERAGE FORCE                      1.651E+04   TIME AVG. FORCE       5.540E+03
 LARGEST RESIDUAL FORCE            -3.407E+03   AT NODE       7700   DOF  1
 LARGEST INCREMENT OF DISP.         2.375E-02   AT NODE      19099   DOF  3
 LARGEST CORRECTION TO DISP.        8.594E-04   AT NODE      10941   DOF  3
          FORCE     EQUILIBRIUM NOT ACHIEVED WITHIN TOLERANCE.

 AVERAGE MOMENT                      35.1       TIME AVG. MOMENT       7.06    
 LARGEST RESIDUAL MOMENT           -0.703       AT NODE       8075   DOF  4
 LARGEST INCREMENT OF ROTATION      6.532E-02   AT NODE       7470   DOF  4
 LARGEST CORRECTION TO ROTATION     6.322E-03   AT NODE      10947   DOF  5
          MOMENT    EQUILIBRIUM NOT ACHIEVED WITHIN TOLERANCE.
 
	SYMMETRIC DIRECT SPARSE SOLVER RUNNING ON
 	1 HOST:        1 MPI RANK  x 1 THREAD
 	NUMBER OF EQUATIONS:     172692
 	NUMBER OF RHS:           2
 	NUMBER OF FLOPS:         2.561e+10

     CHECK POINT   START OF SOLVER    

     CHECK POINT  END OF SOLVER       

       ELAPSED USER TIME (SEC)      =   2.5000    
       ELAPSED SYSTEM TIME (SEC)    =  0.20000    
       ELAPSED TOTAL CPU TIME (SEC) =   2.7000    
       ELAPSED WALLCLOCK TIME (SEC) =          2

               CONVERGENCE CHECKS FOR EQUILIBRIUM ITERATION     3


 AVERAGE FORCE                      1.646E+04   TIME AVG. FORCE       5.538E+03
 LARGEST RESIDUAL FORCE             7.146E+03   AT NODE       7850   DOF  1
 LARGEST INCREMENT OF DISP.         2.365E-02   AT NODE      19099   DOF  3
 LARGEST CORRECTION TO DISP.        1.251E-03   AT NODE      28226   DOF  3
          FORCE     EQUILIBRIUM NOT ACHIEVED WITHIN TOLERANCE.

 AVERAGE MOMENT                      35.0       TIME AVG. MOMENT       7.06    
 LARGEST RESIDUAL MOMENT            0.332       AT NODE      30165   DOF  5
 LARGEST INCREMENT OF ROTATION     -6.383E-02   AT NODE       7779   DOF  4
 LARGEST CORRECTION TO ROTATION    -8.554E-03   AT NODE       7736   DOF  4
          MOMENT    EQUILIBRIUM NOT ACHIEVED WITHIN TOLERANCE.
 
	SYMMETRIC DIRECT SPARSE SOLVER RUNNING ON
 	1 HOST:        1 MPI RANK  x 1 THREAD
 	NUMBER OF EQUATIONS:     172692
 	NUMBER OF RHS:           2
 	NUMBER OF FLOPS:         2.561e+10

     CHECK POINT   START OF SOLVER    

     CHECK POINT  END OF SOLVER       

       ELAPSED USER TIME (SEC)      =   2.0000    
       ELAPSED SYSTEM TIME (SEC)    =  0.10000    
       ELAPSED TOTAL CPU TIME (SEC) =   2.1000    
       ELAPSED WALLCLOCK TIME (SEC) =          2

               CONVERGENCE CHECKS FOR EQUILIBRIUM ITERATION     4


 AVERAGE FORCE                      1.647E+04   TIME AVG. FORCE       5.538E+03
 LARGEST RESIDUAL FORCE              27.7       AT NODE       7850   DOF  1
 LARGEST INCREMENT OF DISP.         2.365E-02   AT NODE      19099   DOF  3
 LARGEST CORRECTION TO DISP.        7.823E-05   AT NODE      28223   DOF  3
          THE FORCE     EQUILIBRIUM EQUATIONS HAVE CONVERGED

 AVERAGE MOMENT                      35.0       TIME AVG. MOMENT       7.05    
 LARGEST RESIDUAL MOMENT           -1.084E-02   AT NODE       7737   DOF  5
 LARGEST INCREMENT OF ROTATION     -6.372E-02   AT NODE       7779   DOF  4
 LARGEST CORRECTION TO ROTATION    -5.229E-04   AT NODE       7740   DOF  4
          THE MOMENT    EQUILIBRIUM EQUATIONS HAVE CONVERGED
          ARC LENGTH INCREMENT MAY NOW INCREASE TO     166.    

 ITERATION SUMMARY FOR THE INCREMENT:   4 TOTAL ITERATIONS, OF WHICH
   0 ARE SEVERE DISCONTINUITY ITERATIONS AND  4 ARE EQUILIBRIUM ITERATIONS.


                                INCREMENT    21 SUMMARY


     CURRENT LOAD PROPORTIONALITY FACTOR          11.55    
     TOTAL ARC LENGTH    332.    , INCREMENT OF ARC LENGTH    111.    

     LOAD PROPORTIONALITY FACTOR NOW EXCEEDS THE MAXIMUM VALUE SPECIFIED
     THE STEP ENDS AT THIS INCREMENT


          THE ANALYSIS HAS BEEN COMPLETED



     ANALYSIS SUMMARY:
     TOTAL OF         21  INCREMENTS
                       0  CUTBACKS IN AUTOMATIC INCREMENTATION
                      66  ITERATIONS INCLUDING CONTACT ITERATIONS IF PRESENT
                      66  PASSES THROUGH THE EQUATION SOLVER OF WHICH 
                      66  INVOLVE MATRIX DECOMPOSITION, INCLUDING
                       0  DECOMPOSITION(S) OF THE MASS MATRIX
                       1  REORDERING OF EQUATIONS TO MINIMIZE WAVEFRONT
                       0  ADDITIONAL RESIDUAL EVALUATIONS FOR LINE SEARCHES
                       0  ADDITIONAL OPERATOR EVALUATIONS FOR LINE SEARCHES
                       0  WARNING MESSAGES DURING USER INPUT PROCESSING
                       0  WARNING MESSAGES DURING ANALYSIS
                       0  ANALYSIS WARNINGS ARE NUMERICAL PROBLEM MESSAGES
                       0  ANALYSIS WARNINGS ARE NEGATIVE EIGENVALUE MESSAGES
                       0  ERROR MESSAGES



     JOB TIME SUMMARY
       USER TIME (SEC)      =   281.90    
       SYSTEM TIME (SEC)    =   20.700    
       TOTAL CPU TIME (SEC) =   302.60    
       WALLCLOCK TIME (SEC) =        319
