1

   Abaqus 2020                                  Date 08-Sep-2025   Time 17:30:14
   For use by UNIVERSITY OF BRITISH COLUMBIA under license from Dassault Systemes or its subsidiary.

                                                                                 
 Incremental                                                                     
 STEP    1     INCREMENT     1     STEP TIME    0.00    


                        S T E P       1     S T A T I C   A N A L Y S I S


          Incremental                                                                     

     AUTOMATIC LOAD CONTROL WITH -
          A SUGGESTED INITIAL INCREMENT IN ARC LENGTH           5.000E-02
          AND A TOTAL ARC LENGTH SCALE FACTOR OF                 1.00    
          THE MINIMUM ARC LENGTH INCREMENT ALLOWED IS           1.000E-05
          THE MAXIMUM ARC LENGTH INCREMENT ALLOWED IS           1.000E+36

     LINEAR EQUATION SOLVER TYPE         DIRECT SPARSE

     MODIFIED RIKS METHOD IS USED - AMPLITUDE REFERENCES ARE IGNORED

     THE STEP ENDS WHEN LOAD PROPORTIONALITY FACTOR EXCEEDS    11.5    

 CONVERGENCE TOLERANCE PARAMETERS FOR FORCE    
     CRITERION FOR RESIDUAL FORCE     FOR A NONLINEAR PROBLEM          5.000E-03
     CRITERION FOR DISP.    CORRECTION IN A NONLINEAR PROBLEM          1.000E-02
     INITIAL VALUE OF TIME AVERAGE FORCE                               1.000E-02
     AVERAGE FORCE     IS TIME AVERAGE FORCE    
     ALTERNATE CRIT. FOR RESIDUAL FORCE     FOR A NONLINEAR PROBLEM    2.000E-02
     CRITERION FOR ZERO FORCE     RELATIVE TO TIME AVRG. FORCE         1.000E-05
     CRITERION FOR RESIDUAL FORCE     WHEN THERE IS ZERO FLUX          1.000E-05
     CRITERION FOR DISP.    CORRECTION WHEN THERE IS ZERO FLUX         1.000E-03
     CRITERION FOR RESIDUAL FORCE     FOR A LINEAR INCREMENT           1.000E-08
     FIELD CONVERSION RATIO                                             1.00    
     CRITERION FOR ZERO FORCE     REL. TO TIME AVRG. MAX. FORCE        1.000E-05
     CRITERION FOR ZERO DISP.    RELATIVE TO CHARACTERISTIC LENGTH     1.000E-08

 CONVERGENCE TOLERANCE PARAMETERS FOR MOMENT   
     CRITERION FOR RESIDUAL MOMENT    FOR A NONLINEAR PROBLEM          5.000E-03
     CRITERION FOR ROTATION CORRECTION IN A NONLINEAR PROBLEM          1.000E-02
     INITIAL VALUE OF TIME AVERAGE MOMENT                              1.000E-02
     AVERAGE MOMENT    IS TIME AVERAGE MOMENT   
     ALTERNATE CRIT. FOR RESIDUAL MOMENT    FOR A NONLINEAR PROBLEM    2.000E-02
     CRITERION FOR ZERO MOMENT    RELATIVE TO TIME AVRG. MOMENT        1.000E-05
     CRITERION FOR RESIDUAL MOMENT    WHEN THERE IS ZERO FLUX          1.000E-05
     CRITERION FOR ROTATION CORRECTION WHEN THERE IS ZERO FLUX         1.000E-03
     CRITERION FOR RESIDUAL MOMENT    FOR A LINEAR INCREMENT           1.000E-08
     FIELD CONVERSION RATIO                                             1.00    
     CRITERION FOR ZERO MOMENT    REL. TO TIME AVRG. MAX. MOMENT       1.000E-05

     VOLUMETRIC STRAIN COMPATIBILITY TOLERANCE FOR HYBRID SOLIDS       1.000E-05
     AXIAL STRAIN COMPATIBILITY TOLERANCE FOR HYBRID BEAMS             1.000E-05
     TRANS. SHEAR STRAIN COMPATIBILITY TOLERANCE FOR HYBRID BEAMS      1.000E-05
     SOFT CONTACT CONSTRAINT COMPATIBILITY TOLERANCE FOR P>P0          5.000E-03
     SOFT CONTACT CONSTRAINT COMPATIBILITY TOLERANCE FOR P=0.0         0.100    
     CONTACT FORCE ERROR TOLERANCE FOR CONVERT SDI=YES                 1.00    
     DISPLACEMENT COMPATIBILITY TOLERANCE FOR DCOUP ELEMENTS           1.000E-05
     ROTATION COMPATIBILITY TOLERANCE FOR DCOUP ELEMENTS               1.000E-05

 EQUILIBRIUM WILL BE CHECKED FOR SEVERE DISCONTINUITY ITERATIONS

 TIME INCREMENTATION CONTROL PARAMETERS:
     FIRST EQUILIBRIUM ITERATION FOR CONSECUTIVE DIVERGENCE CHECK              4
     EQUILIBRIUM ITERATION AT WHICH LOG. CONVERGENCE RATE CHECK BEGINS         8
     EQUILIBRIUM ITERATION AFTER WHICH ALTERNATE RESIDUAL IS USED              9
     MAXIMUM EQUILIBRIUM ITERATIONS ALLOWED                                   16
     EQUILIBRIUM ITERATION COUNT FOR CUT-BACK IN NEXT INCREMENT               10
     MAXIMUM EQUILIB. ITERS IN TWO INCREMENTS FOR TIME INCREMENT INCREASE      4
     MAXIMUM ITERATIONS FOR SEVERE DISCONTINUITIES                            50
     MAXIMUM ATTEMPTS ALLOWED IN AN INCREMENT                                  5
     MAXIMUM DISCON. ITERS IN TWO INCREMENTS FOR TIME INCREMENT INCREASE      50
     MAXIMUM CONTACT AUGMENTATIONS FOR *SURFACE BEHAVIOR,AUGMENTED LAGRANGE   50
     CUT-BACK FACTOR AFTER DIVERGENCE                                 0.2500    
     CUT-BACK FACTOR FOR TOO SLOW CONVERGENCE                         0.5000    
     CUT-BACK FACTOR AFTER TOO MANY EQUILIBRIUM ITERATIONS            0.7500    
     CUT-BACK FACTOR AFTER TOO MANY SEVERE DISCONTINUITY ITERATIONS   0.2500    
     CUT-BACK FACTOR AFTER PROBLEMS IN ELEMENT ASSEMBLY               0.2500    
     INCREASE FACTOR AFTER TWO INCREMENTS THAT CONVERGE QUICKLY        1.500    
     MAX. TIME INCREMENT INCREASE FACTOR ALLOWED                       1.500    
     MAX. TIME INCREMENT INCREASE FACTOR ALLOWED (DYNAMICS)            1.250    
     MAX. TIME INCREMENT INCREASE FACTOR ALLOWED (DIFFUSION)           2.000    
     MINIMUM TIME INCREMENT RATIO FOR EXTRAPOLATION TO OCCUR          0.1000    
     MAX. RATIO OF TIME INCREMENT TO STABILITY LIMIT                   1.000    
     FRACTION OF STABILITY LIMIT FOR NEW TIME INCREMENT               0.9500    
     TIME INCREMENT INCREASE FACTOR BEFORE A TIME POINT                1.000    
     GLOBAL STABILIZATION CONTROL IS NOT USED

          PRINT OF INCREMENT NUMBER, TIME, ETC., EVERY    1  INCREMENTS

     THE MAXIMUM NUMBER OF INCREMENTS IN THIS STEP IS                      50

          LARGE DISPLACEMENT THEORY WILL BE USED

     LINEAR EXTRAPOLATION WILL BE USED

     CHARACTERISTIC ELEMENT LENGTH     2.000E-02

     DETAILS REGARDING ACTUAL SOLUTION WAVEFRONT REQUESTED

     DETAILED OUTPUT OF DIAGNOSTICS TO DATABASE REQUESTED

     PRINT OF INCREMENT NUMBER, TIME, ETC., TO THE MESSAGE FILE EVERY     1  INCREMENTS

     COLLECTING MODEL CONSTRAINT INFORMATION FOR OVERCONSTRAINT CHECKS

     COLLECTING STEP CONSTRAINT INFORMATION FOR OVERCONSTRAINT CHECKS


  INCREMENT     1 STARTS. ATTEMPT NUMBER  1

  NUMBER OF EQUATIONS =    136656     NUMBER OF RHS =    2
  NUMBER OF FLOATING PT. OPERATIONS =  1.44E+10

     CHECK POINT   START OF SOLVER    

     CHECK POINT  END OF SOLVER       

       ELAPSED USER TIME (SEC)      =  0.40000    
       ELAPSED SYSTEM TIME (SEC)    =   0.0000    
       ELAPSED TOTAL CPU TIME (SEC) =  0.40000    
       ELAPSED WALLCLOCK TIME (SEC) =          0

               CONVERGENCE CHECKS FOR EQUILIBRIUM ITERATION     1


 AVERAGE FORCE                       55.8       TIME AVG. FORCE        55.8    
 LARGEST RESIDUAL FORCE              27.1       AT NODE        151   DOF  1
   INSTANCE: PANEL-1                                                                         
 LARGEST INCREMENT OF DISP.         1.206E-04   AT NODE      11401   DOF  3
   INSTANCE: PANEL-1                                                                         
 LARGEST CORRECTION TO DISP.        1.206E-04   AT NODE      11401   DOF  3
   INSTANCE: PANEL-1                                                                         
          FORCE     EQUILIBRIUM NOT ACHIEVED WITHIN TOLERANCE.

 AVERAGE MOMENT                     1.100E-02   TIME AVG. MOMENT      1.100E-02
 LARGEST RESIDUAL MOMENT            2.691E-04   AT NODE      11327   DOF  5
   INSTANCE: PANEL-1                                                                         
 LARGEST INCREMENT OF ROTATION      1.264E-04   AT NODE      11326   DOF  5
   INSTANCE: PANEL-1                                                                         
 LARGEST CORRECTION TO ROTATION     1.264E-04   AT NODE      11326   DOF  5
   INSTANCE: PANEL-1                                                                         
          MOMENT    EQUILIBRIUM NOT ACHIEVED WITHIN TOLERANCE.

  NUMBER OF EQUATIONS =    136656     NUMBER OF RHS =    2
  NUMBER OF FLOATING PT. OPERATIONS =  1.44E+10

     CHECK POINT   START OF SOLVER    

     CHECK POINT  END OF SOLVER       

       ELAPSED USER TIME (SEC)      =  0.40000    
       ELAPSED SYSTEM TIME (SEC)    =   0.0000    
       ELAPSED TOTAL CPU TIME (SEC) =  0.40000    
       ELAPSED WALLCLOCK TIME (SEC) =          1

               CONVERGENCE CHECKS FOR EQUILIBRIUM ITERATION     2


 AVERAGE FORCE                       47.0       TIME AVG. FORCE        47.0    
 LARGEST RESIDUAL FORCE            -1.346E-02   AT NODE        151   DOF  1
   INSTANCE: PANEL-1                                                                         
 LARGEST INCREMENT OF DISP.         1.216E-04   AT NODE      11401   DOF  3
   INSTANCE: PANEL-1                                                                         
 LARGEST CORRECTION TO DISP.       -3.774E-06   AT NODE        151   DOF  1
   INSTANCE: PANEL-1                                                                         
 ESTIMATE OF DISP.    CORRECTION    1.877E-09
 FORCE     EQUILIB. ACCEPTED BASED ON SMALL RESIDUAL AND ESTIMATED CORRECTION

 AVERAGE MOMENT                     1.110E-02   TIME AVG. MOMENT      1.110E-02
 LARGEST RESIDUAL MOMENT           -3.620E-07   AT NODE      11328   DOF  5
   INSTANCE: PANEL-1                                                                         
 LARGEST INCREMENT OF ROTATION     -1.275E-04   AT NODE      11476   DOF  5
   INSTANCE: PANEL-1                                                                         
 LARGEST CORRECTION TO ROTATION    -1.096E-06   AT NODE         76   DOF  4
   INSTANCE: PANEL-1                                                                         
          THE MOMENT    EQUILIBRIUM EQUATIONS HAVE CONVERGED

 ITERATION SUMMARY FOR THE INCREMENT:   2 TOTAL ITERATIONS, OF WHICH
   0 ARE SEVERE DISCONTINUITY ITERATIONS AND  2 ARE EQUILIBRIUM ITERATIONS.


                                INCREMENT     1 SUMMARY


     CURRENT LOAD PROPORTIONALITY FACTOR         4.2061E-02
     TOTAL ARC LENGTH   5.000E-02, INCREMENT OF ARC LENGTH   5.000E-02


  INCREMENT     2 STARTS. ATTEMPT NUMBER  1

  NUMBER OF EQUATIONS =    136656     NUMBER OF RHS =    2
  NUMBER OF FLOATING PT. OPERATIONS =  1.44E+10

     CHECK POINT   START OF SOLVER    

     CHECK POINT  END OF SOLVER       

       ELAPSED USER TIME (SEC)      =  0.50000    
       ELAPSED SYSTEM TIME (SEC)    =   0.0000    
       ELAPSED TOTAL CPU TIME (SEC) =  0.50000    
       ELAPSED WALLCLOCK TIME (SEC) =          1

               CONVERGENCE CHECKS FOR EQUILIBRIUM ITERATION     1


 AVERAGE FORCE                       187.       TIME AVG. FORCE        117.    
 LARGEST RESIDUAL FORCE              27.6       AT NODE        151   DOF  1
   INSTANCE: PANEL-1                                                                         
 LARGEST INCREMENT OF DISP.         1.222E-04   AT NODE      11401   DOF  3
   INSTANCE: PANEL-1                                                                         
 LARGEST CORRECTION TO DISP.        1.222E-04   AT NODE      11401   DOF  3
   INSTANCE: PANEL-1                                                                         
          FORCE     EQUILIBRIUM NOT ACHIEVED WITHIN TOLERANCE.

 AVERAGE MOMENT                     2.240E-02   TIME AVG. MOMENT      1.675E-02
 LARGEST RESIDUAL MOMENT            1.871E-04   AT NODE      11327   DOF  5
   INSTANCE: PANEL-1                                                                         
 LARGEST INCREMENT OF ROTATION      1.282E-04   AT NODE      11326   DOF  5
   INSTANCE: PANEL-1                                                                         
 LARGEST CORRECTION TO ROTATION     1.282E-04   AT NODE      11326   DOF  5
   INSTANCE: PANEL-1                                                                         
          MOMENT    EQUILIBRIUM NOT ACHIEVED WITHIN TOLERANCE.

  NUMBER OF EQUATIONS =    136656     NUMBER OF RHS =    2
  NUMBER OF FLOATING PT. OPERATIONS =  1.44E+10

     CHECK POINT   START OF SOLVER    

     CHECK POINT  END OF SOLVER       

       ELAPSED USER TIME (SEC)      =  0.50000    
       ELAPSED SYSTEM TIME (SEC)    =   0.0000    
       ELAPSED TOTAL CPU TIME (SEC) =  0.50000    
       ELAPSED WALLCLOCK TIME (SEC) =          1

               CONVERGENCE CHECKS FOR EQUILIBRIUM ITERATION     2


 AVERAGE FORCE                       178.       TIME AVG. FORCE        113.    
 LARGEST RESIDUAL FORCE            -5.453E-03   AT NODE        151   DOF  1
   INSTANCE: PANEL-1                                                                         
 LARGEST INCREMENT OF DISP.         1.226E-04   AT NODE      11401   DOF  3
   INSTANCE: PANEL-1                                                                         
 LARGEST CORRECTION TO DISP.       -2.311E-06   AT NODE        302   DOF  1
   INSTANCE: PANEL-1                                                                         
 ESTIMATE OF DISP.    CORRECTION    4.572E-10
 FORCE     EQUILIB. ACCEPTED BASED ON SMALL RESIDUAL AND ESTIMATED CORRECTION

 AVERAGE MOMENT                     2.244E-02   TIME AVG. MOMENT      1.677E-02
 LARGEST RESIDUAL MOMENT            9.024E-08   AT NODE      11474   DOF  5
   INSTANCE: PANEL-1                                                                         
 LARGEST INCREMENT OF ROTATION      1.286E-04   AT NODE      11326   DOF  5
   INSTANCE: PANEL-1                                                                         
 LARGEST CORRECTION TO ROTATION    -4.728E-07   AT NODE         76   DOF  4
   INSTANCE: PANEL-1                                                                         
          THE MOMENT    EQUILIBRIUM EQUATIONS HAVE CONVERGED
          ARC LENGTH INCREMENT MAY NOW INCREASE TO    7.500E-02

 ITERATION SUMMARY FOR THE INCREMENT:   2 TOTAL ITERATIONS, OF WHICH
   0 ARE SEVERE DISCONTINUITY ITERATIONS AND  2 ARE EQUILIBRIUM ITERATIONS.


                                INCREMENT     2 SUMMARY


     CURRENT LOAD PROPORTIONALITY FACTOR         7.2416E-02
     TOTAL ARC LENGTH   0.100    , INCREMENT OF ARC LENGTH   5.000E-02


  INCREMENT     3 STARTS. ATTEMPT NUMBER  1

  NUMBER OF EQUATIONS =    136656     NUMBER OF RHS =    2
  NUMBER OF FLOATING PT. OPERATIONS =  1.44E+10

     CHECK POINT   START OF SOLVER    

     CHECK POINT  END OF SOLVER       

       ELAPSED USER TIME (SEC)      =  0.60000    
       ELAPSED SYSTEM TIME (SEC)    =   0.0000    
       ELAPSED TOTAL CPU TIME (SEC) =  0.60000    
       ELAPSED WALLCLOCK TIME (SEC) =          1

               CONVERGENCE CHECKS FOR EQUILIBRIUM ITERATION     1


 AVERAGE FORCE                       234.       TIME AVG. FORCE        153.    
 LARGEST RESIDUAL FORCE              63.1       AT NODE        151   DOF  1
   INSTANCE: PANEL-1                                                                         
 LARGEST INCREMENT OF DISP.         1.843E-04   AT NODE      11401   DOF  3
   INSTANCE: PANEL-1                                                                         
 LARGEST CORRECTION TO DISP.        1.843E-04   AT NODE      11401   DOF  3
   INSTANCE: PANEL-1                                                                         
          FORCE     EQUILIBRIUM NOT ACHIEVED WITHIN TOLERANCE.

 AVERAGE MOMENT                     3.930E-02   TIME AVG. MOMENT      2.428E-02
 LARGEST RESIDUAL MOMENT           -3.123E-04   AT NODE      11475   DOF  5
   INSTANCE: PANEL-1                                                                         
 LARGEST INCREMENT OF ROTATION      1.934E-04   AT NODE      11326   DOF  5
   INSTANCE: PANEL-1                                                                         
 LARGEST CORRECTION TO ROTATION     1.934E-04   AT NODE      11326   DOF  5
   INSTANCE: PANEL-1                                                                         
          MOMENT    EQUILIBRIUM NOT ACHIEVED WITHIN TOLERANCE.

  NUMBER OF EQUATIONS =    136656     NUMBER OF RHS =    2
  NUMBER OF FLOATING PT. OPERATIONS =  1.44E+10

     CHECK POINT   START OF SOLVER    

     CHECK POINT  END OF SOLVER       

       ELAPSED USER TIME (SEC)      =  0.40000    
       ELAPSED SYSTEM TIME (SEC)    =   0.0000    
       ELAPSED TOTAL CPU TIME (SEC) =  0.40000    
       ELAPSED WALLCLOCK TIME (SEC) =          0

               CONVERGENCE CHECKS FOR EQUILIBRIUM ITERATION     2


 AVERAGE FORCE                       223.       TIME AVG. FORCE        149.    
 LARGEST RESIDUAL FORCE            -1.071E-02   AT NODE        151   DOF  1
   INSTANCE: PANEL-1                                                                         
 LARGEST INCREMENT OF DISP.         1.848E-04   AT NODE      11401   DOF  3
   INSTANCE: PANEL-1                                                                         
 LARGEST CORRECTION TO DISP.       -3.197E-06   AT NODE        151   DOF  1
   INSTANCE: PANEL-1                                                                         
 ESTIMATE OF DISP.    CORRECTION    5.425E-10
 FORCE     EQUILIB. ACCEPTED BASED ON SMALL RESIDUAL AND ESTIMATED CORRECTION

 AVERAGE MOMENT                     3.933E-02   TIME AVG. MOMENT      2.429E-02
 LARGEST RESIDUAL MOMENT           -1.829E-07   AT NODE      22499   DOF  4
   INSTANCE: PANEL-1                                                                         
 LARGEST INCREMENT OF ROTATION      1.939E-04   AT NODE      11326   DOF  5
   INSTANCE: PANEL-1                                                                         
 LARGEST CORRECTION TO ROTATION    -4.957E-07   AT NODE         76   DOF  4
   INSTANCE: PANEL-1                                                                         
          THE MOMENT    EQUILIBRIUM EQUATIONS HAVE CONVERGED
          ARC LENGTH INCREMENT MAY NOW INCREASE TO    0.113    

 ITERATION SUMMARY FOR THE INCREMENT:   2 TOTAL ITERATIONS, OF WHICH
   0 ARE SEVERE DISCONTINUITY ITERATIONS AND  2 ARE EQUILIBRIUM ITERATIONS.


                                INCREMENT     3 SUMMARY


     CURRENT LOAD PROPORTIONALITY FACTOR         0.1047    
     TOTAL ARC LENGTH   0.175    , INCREMENT OF ARC LENGTH   7.500E-02


  INCREMENT     4 STARTS. ATTEMPT NUMBER  1

  NUMBER OF EQUATIONS =    136656     NUMBER OF RHS =    2
  NUMBER OF FLOATING PT. OPERATIONS =  1.44E+10

     CHECK POINT   START OF SOLVER    

     CHECK POINT  END OF SOLVER       

       ELAPSED USER TIME (SEC)      =  0.30000    
       ELAPSED SYSTEM TIME (SEC)    =   0.0000    
       ELAPSED TOTAL CPU TIME (SEC) =  0.30000    
       ELAPSED WALLCLOCK TIME (SEC) =          1

               CONVERGENCE CHECKS FOR EQUILIBRIUM ITERATION     1


 AVERAGE FORCE                       274.       TIME AVG. FORCE        181.    
 LARGEST RESIDUAL FORCE              144.       AT NODE        151   DOF  1
   INSTANCE: PANEL-1                                                                         
 LARGEST INCREMENT OF DISP.         2.775E-04   AT NODE      11401   DOF  3
   INSTANCE: PANEL-1                                                                         
 LARGEST CORRECTION TO DISP.        2.775E-04   AT NODE      11401   DOF  3
   INSTANCE: PANEL-1                                                                         
          FORCE     EQUILIBRIUM NOT ACHIEVED WITHIN TOLERANCE.

 AVERAGE MOMENT                     6.472E-02   TIME AVG. MOMENT      3.440E-02
 LARGEST RESIDUAL MOMENT            4.761E-04   AT NODE      11327   DOF  5
   INSTANCE: PANEL-1                                                                         
 LARGEST INCREMENT OF ROTATION      2.913E-04   AT NODE      11326   DOF  5
   INSTANCE: PANEL-1                                                                         
 LARGEST CORRECTION TO ROTATION     2.913E-04   AT NODE      11326   DOF  5
   INSTANCE: PANEL-1                                                                         
          MOMENT    EQUILIBRIUM NOT ACHIEVED WITHIN TOLERANCE.

  NUMBER OF EQUATIONS =    136656     NUMBER OF RHS =    2
  NUMBER OF FLOATING PT. OPERATIONS =  1.44E+10

     CHECK POINT   START OF SOLVER    

     CHECK POINT  END OF SOLVER       

       ELAPSED USER TIME (SEC)      =  0.30000    
       ELAPSED SYSTEM TIME (SEC)    =   0.0000    
       ELAPSED TOTAL CPU TIME (SEC) =  0.30000    
       ELAPSED WALLCLOCK TIME (SEC) =          1

               CONVERGENCE CHECKS FOR EQUILIBRIUM ITERATION     2


 AVERAGE FORCE                       264.       TIME AVG. FORCE        178.    
 LARGEST RESIDUAL FORCE            -1.564E-02   AT NODE        151   DOF  1
   INSTANCE: PANEL-1                                                                         
 LARGEST INCREMENT OF DISP.         2.778E-04   AT NODE      11401   DOF  3
   INSTANCE: PANEL-1                                                                         
 LARGEST CORRECTION TO DISP.       -3.858E-06   AT NODE        151   DOF  1
   INSTANCE: PANEL-1                                                                         
 ESTIMATE OF DISP.    CORRECTION    4.203E-10
 FORCE     EQUILIB. ACCEPTED BASED ON SMALL RESIDUAL AND ESTIMATED CORRECTION

 AVERAGE MOMENT                     6.473E-02   TIME AVG. MOMENT      3.440E-02
 LARGEST RESIDUAL MOMENT           -3.574E-07   AT NODE      22349   DOF  4
   INSTANCE: PANEL-1                                                                         
 LARGEST INCREMENT OF ROTATION      2.917E-04   AT NODE      22726   DOF  4
   INSTANCE: PANEL-1                                                                         
 LARGEST CORRECTION TO ROTATION    -4.524E-07   AT NODE         76   DOF  4
   INSTANCE: PANEL-1                                                                         
          THE MOMENT    EQUILIBRIUM EQUATIONS HAVE CONVERGED
          ARC LENGTH INCREMENT MAY NOW INCREASE TO    0.169    

 ITERATION SUMMARY FOR THE INCREMENT:   2 TOTAL ITERATIONS, OF WHICH
   0 ARE SEVERE DISCONTINUITY ITERATIONS AND  2 ARE EQUILIBRIUM ITERATIONS.


                                INCREMENT     4 SUMMARY


     CURRENT LOAD PROPORTIONALITY FACTOR         0.1364    
     TOTAL ARC LENGTH   0.288    , INCREMENT OF ARC LENGTH   0.113    


  INCREMENT     5 STARTS. ATTEMPT NUMBER  1

  NUMBER OF EQUATIONS =    136656     NUMBER OF RHS =    2
  NUMBER OF FLOATING PT. OPERATIONS =  1.44E+10

     CHECK POINT   START OF SOLVER    

     CHECK POINT  END OF SOLVER       

       ELAPSED USER TIME (SEC)      =  0.40000    
       ELAPSED SYSTEM TIME (SEC)    =   0.0000    
       ELAPSED TOTAL CPU TIME (SEC) =  0.40000    
       ELAPSED WALLCLOCK TIME (SEC) =          0

               CONVERGENCE CHECKS FOR EQUILIBRIUM ITERATION     1


 AVERAGE FORCE                       310.       TIME AVG. FORCE        205.    
 LARGEST RESIDUAL FORCE              325.       AT NODE        151   DOF  1
   INSTANCE: PANEL-1                                                                         
 LARGEST INCREMENT OF DISP.         4.169E-04   AT NODE      11401   DOF  3
   INSTANCE: PANEL-1                                                                         
 LARGEST CORRECTION TO DISP.        4.169E-04   AT NODE      11401   DOF  3
   INSTANCE: PANEL-1                                                                         
          FORCE     EQUILIBRIUM NOT ACHIEVED WITHIN TOLERANCE.

 AVERAGE MOMENT                     0.103       TIME AVG. MOMENT      4.810E-02
 LARGEST RESIDUAL MOMENT           -6.618E-04   AT NODE      11475   DOF  5
   INSTANCE: PANEL-1                                                                         
 LARGEST INCREMENT OF ROTATION      4.379E-04   AT NODE      22726   DOF  4
   INSTANCE: PANEL-1                                                                         
 LARGEST CORRECTION TO ROTATION     4.379E-04   AT NODE      22726   DOF  4
   INSTANCE: PANEL-1                                                                         
          MOMENT    EQUILIBRIUM NOT ACHIEVED WITHIN TOLERANCE.

  NUMBER OF EQUATIONS =    136656     NUMBER OF RHS =    2
  NUMBER OF FLOATING PT. OPERATIONS =  1.44E+10

     CHECK POINT   START OF SOLVER    

     CHECK POINT  END OF SOLVER       

       ELAPSED USER TIME (SEC)      =  0.50000    
       ELAPSED SYSTEM TIME (SEC)    =   0.0000    
       ELAPSED TOTAL CPU TIME (SEC) =  0.50000    
       ELAPSED WALLCLOCK TIME (SEC) =          1

               CONVERGENCE CHECKS FOR EQUILIBRIUM ITERATION     2


 AVERAGE FORCE                       300.       TIME AVG. FORCE        203.    
 LARGEST RESIDUAL FORCE            -1.706E-02   AT NODE        151   DOF  1
   INSTANCE: PANEL-1                                                                         
 LARGEST INCREMENT OF DISP.         4.170E-04   AT NODE      11401   DOF  3
   INSTANCE: PANEL-1                                                                         
 LARGEST CORRECTION TO DISP.       -4.064E-06   AT NODE        302   DOF  1
   INSTANCE: PANEL-1                                                                         
          THE FORCE     EQUILIBRIUM EQUATIONS HAVE CONVERGED

 AVERAGE MOMENT                     0.103       TIME AVG. MOMENT      4.810E-02
 LARGEST RESIDUAL MOMENT            5.962E-07   AT NODE        453   DOF  4
   INSTANCE: PANEL-1                                                                         
 LARGEST INCREMENT OF ROTATION      4.384E-04   AT NODE      22726   DOF  4
   INSTANCE: PANEL-1                                                                         
 LARGEST CORRECTION TO ROTATION    -4.637E-07   AT NODE         50   DOF  4
   INSTANCE: PANEL-1                                                                         
          THE MOMENT    EQUILIBRIUM EQUATIONS HAVE CONVERGED
          ARC LENGTH INCREMENT MAY NOW INCREASE TO    0.253    

 ITERATION SUMMARY FOR THE INCREMENT:   2 TOTAL ITERATIONS, OF WHICH
   0 ARE SEVERE DISCONTINUITY ITERATIONS AND  2 ARE EQUILIBRIUM ITERATIONS.


                                INCREMENT     5 SUMMARY


     CURRENT LOAD PROPORTIONALITY FACTOR         0.1653    
     TOTAL ARC LENGTH   0.456    , INCREMENT OF ARC LENGTH   0.169    


  INCREMENT     6 STARTS. ATTEMPT NUMBER  1

  NUMBER OF EQUATIONS =    136656     NUMBER OF RHS =    2
  NUMBER OF FLOATING PT. OPERATIONS =  1.44E+10

     CHECK POINT   START OF SOLVER    

     CHECK POINT  END OF SOLVER       

       ELAPSED USER TIME (SEC)      =  0.50000    
       ELAPSED SYSTEM TIME (SEC)    =   0.0000    
       ELAPSED TOTAL CPU TIME (SEC) =  0.50000    
       ELAPSED WALLCLOCK TIME (SEC) =          1

               CONVERGENCE CHECKS FOR EQUILIBRIUM ITERATION     1


 AVERAGE FORCE                       340.       TIME AVG. FORCE        225.    
 LARGEST RESIDUAL FORCE              735.       AT NODE        151   DOF  1
   INSTANCE: PANEL-1                                                                         
 LARGEST INCREMENT OF DISP.         6.254E-04   AT NODE      11401   DOF  3
   INSTANCE: PANEL-1                                                                         
 LARGEST CORRECTION TO DISP.        6.254E-04   AT NODE      11401   DOF  3
   INSTANCE: PANEL-1                                                                         
          FORCE     EQUILIBRIUM NOT ACHIEVED WITHIN TOLERANCE.

 AVERAGE MOMENT                     0.160       TIME AVG. MOMENT      6.678E-02
 LARGEST RESIDUAL MOMENT            8.351E-04   AT NODE      11327   DOF  5
   INSTANCE: PANEL-1                                                                         
 LARGEST INCREMENT OF ROTATION      6.580E-04   AT NODE      22726   DOF  4
   INSTANCE: PANEL-1                                                                         
 LARGEST CORRECTION TO ROTATION     6.580E-04   AT NODE      22726   DOF  4
   INSTANCE: PANEL-1                                                                         
          MOMENT    EQUILIBRIUM NOT ACHIEVED WITHIN TOLERANCE.

  NUMBER OF EQUATIONS =    136656     NUMBER OF RHS =    2
  NUMBER OF FLOATING PT. OPERATIONS =  1.44E+10

     CHECK POINT   START OF SOLVER    

     CHECK POINT  END OF SOLVER       

       ELAPSED USER TIME (SEC)      =  0.40000    
       ELAPSED SYSTEM TIME (SEC)    =   0.0000    
       ELAPSED TOTAL CPU TIME (SEC) =  0.40000    
       ELAPSED WALLCLOCK TIME (SEC) =          1

               CONVERGENCE CHECKS FOR EQUILIBRIUM ITERATION     2


 AVERAGE FORCE                       331.       TIME AVG. FORCE        224.    
 LARGEST RESIDUAL FORCE            -1.256E-02   AT NODE        151   DOF  1
   INSTANCE: PANEL-1                                                                         
 LARGEST INCREMENT OF DISP.         6.251E-04   AT NODE      11401   DOF  3
   INSTANCE: PANEL-1                                                                         
 LARGEST CORRECTION TO DISP.       -3.728E-06   AT NODE        151   DOF  1
   INSTANCE: PANEL-1                                                                         
          THE FORCE     EQUILIBRIUM EQUATIONS HAVE CONVERGED

 AVERAGE MOMENT                     0.160       TIME AVG. MOMENT      6.679E-02
 LARGEST RESIDUAL MOMENT            8.633E-07   AT NODE        303   DOF  4
   INSTANCE: PANEL-1                                                                         
 LARGEST INCREMENT OF ROTATION     -6.587E-04   AT NODE         76   DOF  4
   INSTANCE: PANEL-1                                                                         
 LARGEST CORRECTION TO ROTATION    -8.872E-07   AT NODE        112   DOF  4
   INSTANCE: PANEL-1                                                                         
          THE MOMENT    EQUILIBRIUM EQUATIONS HAVE CONVERGED
          ARC LENGTH INCREMENT MAY NOW INCREASE TO    0.380    

 ITERATION SUMMARY FOR THE INCREMENT:   2 TOTAL ITERATIONS, OF WHICH
   0 ARE SEVERE DISCONTINUITY ITERATIONS AND  2 ARE EQUILIBRIUM ITERATIONS.


                                INCREMENT     6 SUMMARY


     CURRENT LOAD PROPORTIONALITY FACTOR         0.1904    
     TOTAL ARC LENGTH   0.709    , INCREMENT OF ARC LENGTH   0.253    


  INCREMENT     7 STARTS. ATTEMPT NUMBER  1

  NUMBER OF EQUATIONS =    136656     NUMBER OF RHS =    2
  NUMBER OF FLOATING PT. OPERATIONS =  1.44E+10

     CHECK POINT   START OF SOLVER    

     CHECK POINT  END OF SOLVER       

       ELAPSED USER TIME (SEC)      =  0.40000    
       ELAPSED SYSTEM TIME (SEC)    =   0.0000    
       ELAPSED TOTAL CPU TIME (SEC) =  0.40000    
       ELAPSED WALLCLOCK TIME (SEC) =          1

               CONVERGENCE CHECKS FOR EQUILIBRIUM ITERATION     1


 AVERAGE FORCE                       340.       TIME AVG. FORCE        241.    
 LARGEST RESIDUAL FORCE             1.664E+03   AT NODE        151   DOF  1
   INSTANCE: PANEL-1                                                                         
 LARGEST INCREMENT OF DISP.         9.369E-04   AT NODE      11401   DOF  3
   INSTANCE: PANEL-1                                                                         
 LARGEST CORRECTION TO DISP.        9.369E-04   AT NODE      11401   DOF  3
   INSTANCE: PANEL-1                                                                         
          FORCE     EQUILIBRIUM NOT ACHIEVED WITHIN TOLERANCE.

 AVERAGE MOMENT                     0.246       TIME AVG. MOMENT      9.244E-02
 LARGEST RESIDUAL MOMENT            9.304E-04   AT NODE      11327   DOF  5
   INSTANCE: PANEL-1                                                                         
 LARGEST INCREMENT OF ROTATION      9.891E-04   AT NODE      22726   DOF  4
   INSTANCE: PANEL-1                                                                         
 LARGEST CORRECTION TO ROTATION     9.891E-04   AT NODE      22726   DOF  4
   INSTANCE: PANEL-1                                                                         
          MOMENT    EQUILIBRIUM NOT ACHIEVED WITHIN TOLERANCE.

  NUMBER OF EQUATIONS =    136656     NUMBER OF RHS =    2
  NUMBER OF FLOATING PT. OPERATIONS =  1.44E+10

     CHECK POINT   START OF SOLVER    

     CHECK POINT  END OF SOLVER       

       ELAPSED USER TIME (SEC)      =  0.40000    
       ELAPSED SYSTEM TIME (SEC)    =  0.10000    
       ELAPSED TOTAL CPU TIME (SEC) =  0.50000    
       ELAPSED WALLCLOCK TIME (SEC) =          1

               CONVERGENCE CHECKS FOR EQUILIBRIUM ITERATION     2


 AVERAGE FORCE                       342.       TIME AVG. FORCE        241.    
 LARGEST RESIDUAL FORCE             3.455E-03   AT NODE        151   DOF  1
   INSTANCE: PANEL-1                                                                         
 LARGEST INCREMENT OF DISP.         9.355E-04   AT NODE      11401   DOF  3
   INSTANCE: PANEL-1                                                                         
 LARGEST CORRECTION TO DISP.       -2.875E-06   AT NODE        302   DOF  1
   INSTANCE: PANEL-1                                                                         
          THE FORCE     EQUILIBRIUM EQUATIONS HAVE CONVERGED

 AVERAGE MOMENT                     0.246       TIME AVG. MOMENT      9.245E-02
 LARGEST RESIDUAL MOMENT           -1.085E-06   AT NODE      22499   DOF  4
   INSTANCE: PANEL-1                                                                         
 LARGEST INCREMENT OF ROTATION     -9.908E-04   AT NODE         76   DOF  4
   INSTANCE: PANEL-1                                                                         
 LARGEST CORRECTION TO ROTATION     2.611E-06   AT NODE       7324   DOF  4
   INSTANCE: PANEL-1                                                                         
          THE MOMENT    EQUILIBRIUM EQUATIONS HAVE CONVERGED
          ARC LENGTH INCREMENT MAY NOW INCREASE TO    0.570    

 ITERATION SUMMARY FOR THE INCREMENT:   2 TOTAL ITERATIONS, OF WHICH
   0 ARE SEVERE DISCONTINUITY ITERATIONS AND  2 ARE EQUILIBRIUM ITERATIONS.


                                INCREMENT     7 SUMMARY


     CURRENT LOAD PROPORTIONALITY FACTOR         0.2121    
     TOTAL ARC LENGTH    1.09    , INCREMENT OF ARC LENGTH   0.380    


  INCREMENT     8 STARTS. ATTEMPT NUMBER  1

  NUMBER OF EQUATIONS =    136656     NUMBER OF RHS =    2
  NUMBER OF FLOATING PT. OPERATIONS =  1.44E+10

     CHECK POINT   START OF SOLVER    

     CHECK POINT  END OF SOLVER       

       ELAPSED USER TIME (SEC)      =  0.50000    
       ELAPSED SYSTEM TIME (SEC)    =   0.0000    
       ELAPSED TOTAL CPU TIME (SEC) =  0.50000    
       ELAPSED WALLCLOCK TIME (SEC) =          0

               CONVERGENCE CHECKS FOR EQUILIBRIUM ITERATION     1


 AVERAGE FORCE                       322.       TIME AVG. FORCE        251.    
 LARGEST RESIDUAL FORCE             3.780E+03   AT NODE        151   DOF  1
   INSTANCE: PANEL-1                                                                         
 LARGEST INCREMENT OF DISP.         1.401E-03   AT NODE      11401   DOF  3
   INSTANCE: PANEL-1                                                                         
 LARGEST CORRECTION TO DISP.        1.401E-03   AT NODE      11401   DOF  3
   INSTANCE: PANEL-1                                                                         
          FORCE     EQUILIBRIUM NOT ACHIEVED WITHIN TOLERANCE.

 AVERAGE MOMENT                     0.376       TIME AVG. MOMENT      0.128    
 LARGEST RESIDUAL MOMENT           -1.039E-03   AT NODE      22575   DOF  4
   INSTANCE: PANEL-1                                                                         
 LARGEST INCREMENT OF ROTATION      1.489E-03   AT NODE      22726   DOF  4
   INSTANCE: PANEL-1                                                                         
 LARGEST CORRECTION TO ROTATION     1.489E-03   AT NODE      22726   DOF  4
   INSTANCE: PANEL-1                                                                         
          MOMENT    EQUILIBRIUM NOT ACHIEVED WITHIN TOLERANCE.

  NUMBER OF EQUATIONS =    136656     NUMBER OF RHS =    2
  NUMBER OF FLOATING PT. OPERATIONS =  1.44E+10

     CHECK POINT   START OF SOLVER    

     CHECK POINT  END OF SOLVER       

       ELAPSED USER TIME (SEC)      =  0.50000    
       ELAPSED SYSTEM TIME (SEC)    =   0.0000    
       ELAPSED TOTAL CPU TIME (SEC) =  0.50000    
       ELAPSED WALLCLOCK TIME (SEC) =          1

               CONVERGENCE CHECKS FOR EQUILIBRIUM ITERATION     2


 AVERAGE FORCE                       321.       TIME AVG. FORCE        251.    
 LARGEST RESIDUAL FORCE             9.777E-02   AT NODE        151   DOF  1
   INSTANCE: PANEL-1                                                                         
 LARGEST INCREMENT OF DISP.         1.397E-03   AT NODE      11401   DOF  3
   INSTANCE: PANEL-1                                                                         
 LARGEST CORRECTION TO DISP.       -4.385E-06   AT NODE      11401   DOF  3
   INSTANCE: PANEL-1                                                                         
          THE FORCE     EQUILIBRIUM EQUATIONS HAVE CONVERGED

 AVERAGE MOMENT                     0.376       TIME AVG. MOMENT      0.128    
 LARGEST RESIDUAL MOMENT           -1.769E-06   AT NODE      11423   DOF  5
   INSTANCE: PANEL-1                                                                         
 LARGEST INCREMENT OF ROTATION      1.494E-03   AT NODE      22726   DOF  4
   INSTANCE: PANEL-1                                                                         
 LARGEST CORRECTION TO ROTATION     8.127E-06   AT NODE       7324   DOF  4
   INSTANCE: PANEL-1                                                                         
          THE MOMENT    EQUILIBRIUM EQUATIONS HAVE CONVERGED
          ARC LENGTH INCREMENT MAY NOW INCREASE TO    0.854    

 ITERATION SUMMARY FOR THE INCREMENT:   2 TOTAL ITERATIONS, OF WHICH
   0 ARE SEVERE DISCONTINUITY ITERATIONS AND  2 ARE EQUILIBRIUM ITERATIONS.


                                INCREMENT     8 SUMMARY


     CURRENT LOAD PROPORTIONALITY FACTOR         0.2327    
     TOTAL ARC LENGTH    1.66    , INCREMENT OF ARC LENGTH   0.570    


  INCREMENT     9 STARTS. ATTEMPT NUMBER  1

  NUMBER OF EQUATIONS =    136656     NUMBER OF RHS =    2
  NUMBER OF FLOATING PT. OPERATIONS =  1.44E+10

     CHECK POINT   START OF SOLVER    

     CHECK POINT  END OF SOLVER       

       ELAPSED USER TIME (SEC)      =  0.40000    
       ELAPSED SYSTEM TIME (SEC)    =   0.0000    
       ELAPSED TOTAL CPU TIME (SEC) =  0.40000    
       ELAPSED WALLCLOCK TIME (SEC) =          1

               CONVERGENCE CHECKS FOR EQUILIBRIUM ITERATION     1


 AVERAGE FORCE                       334.       TIME AVG. FORCE        260.    
 LARGEST RESIDUAL FORCE             8.676E+03   AT NODE        151   DOF  1
   INSTANCE: PANEL-1                                                                         
 LARGEST INCREMENT OF DISP.         2.087E-03   AT NODE      11401   DOF  3
   INSTANCE: PANEL-1                                                                         
 LARGEST CORRECTION TO DISP.        2.087E-03   AT NODE      11401   DOF  3
   INSTANCE: PANEL-1                                                                         
          FORCE     EQUILIBRIUM NOT ACHIEVED WITHIN TOLERANCE.

 AVERAGE MOMENT                     0.571       TIME AVG. MOMENT      0.177    
 LARGEST RESIDUAL MOMENT           -2.628E-03   AT NODE      22575   DOF  4
   INSTANCE: PANEL-1                                                                         
 LARGEST INCREMENT OF ROTATION      2.250E-03   AT NODE      22726   DOF  4
   INSTANCE: PANEL-1                                                                         
 LARGEST CORRECTION TO ROTATION     2.250E-03   AT NODE      22726   DOF  4
   INSTANCE: PANEL-1                                                                         
          MOMENT    EQUILIBRIUM NOT ACHIEVED WITHIN TOLERANCE.

  NUMBER OF EQUATIONS =    136656     NUMBER OF RHS =    2
  NUMBER OF FLOATING PT. OPERATIONS =  1.44E+10

     CHECK POINT   START OF SOLVER    

     CHECK POINT  END OF SOLVER       

       ELAPSED USER TIME (SEC)      =  0.30000    
       ELAPSED SYSTEM TIME (SEC)    =   0.0000    
       ELAPSED TOTAL CPU TIME (SEC) =  0.30000    
       ELAPSED WALLCLOCK TIME (SEC) =          1

               CONVERGENCE CHECKS FOR EQUILIBRIUM ITERATION     2


 AVERAGE FORCE                       337.       TIME AVG. FORCE        260.    
 LARGEST RESIDUAL FORCE             0.935       AT NODE        151   DOF  1
   INSTANCE: PANEL-1                                                                         
 LARGEST INCREMENT OF DISP.         2.074E-03   AT NODE      11401   DOF  3
   INSTANCE: PANEL-1                                                                         
 LARGEST CORRECTION TO DISP.       -1.343E-05   AT NODE      11401   DOF  3
   INSTANCE: PANEL-1                                                                         
          THE FORCE     EQUILIBRIUM EQUATIONS HAVE CONVERGED

 AVERAGE MOMENT                     0.572       TIME AVG. MOMENT      0.177    
 LARGEST RESIDUAL MOMENT            9.241E-06   AT NODE      22553   DOF  4
   INSTANCE: PANEL-1                                                                         
 LARGEST INCREMENT OF ROTATION      2.264E-03   AT NODE      22726   DOF  4
   INSTANCE: PANEL-1                                                                         
 LARGEST CORRECTION TO ROTATION     2.456E-05   AT NODE       7324   DOF  4
   INSTANCE: PANEL-1                                                                         
 ESTIMATE OF ROTATION CORRECTION   -1.720E-05
 MOMENT    EQUILIB. ACCEPTED BASED ON SMALL RESIDUAL AND ESTIMATED CORRECTION
          ARC LENGTH INCREMENT MAY NOW INCREASE TO     1.28    

 ITERATION SUMMARY FOR THE INCREMENT:   2 TOTAL ITERATIONS, OF WHICH
   0 ARE SEVERE DISCONTINUITY ITERATIONS AND  2 ARE EQUILIBRIUM ITERATIONS.


                                INCREMENT     9 SUMMARY


     CURRENT LOAD PROPORTIONALITY FACTOR         0.2568    
     TOTAL ARC LENGTH    2.51    , INCREMENT OF ARC LENGTH   0.854    


  INCREMENT    10 STARTS. ATTEMPT NUMBER  1

  NUMBER OF EQUATIONS =    136656     NUMBER OF RHS =    2
  NUMBER OF FLOATING PT. OPERATIONS =  1.44E+10

     CHECK POINT   START OF SOLVER    

     CHECK POINT  END OF SOLVER       

       ELAPSED USER TIME (SEC)      =  0.40000    
       ELAPSED SYSTEM TIME (SEC)    =   0.0000    
       ELAPSED TOTAL CPU TIME (SEC) =  0.40000    
       ELAPSED WALLCLOCK TIME (SEC) =          1

               CONVERGENCE CHECKS FOR EQUILIBRIUM ITERATION     1


 AVERAGE FORCE                       371.       TIME AVG. FORCE        271.    
 LARGEST RESIDUAL FORCE             2.033E+04   AT NODE        151   DOF  1
   INSTANCE: PANEL-1                                                                         
 LARGEST INCREMENT OF DISP.         3.087E-03   AT NODE      11401   DOF  3
   INSTANCE: PANEL-1                                                                         
 LARGEST CORRECTION TO DISP.        3.087E-03   AT NODE      11401   DOF  3
   INSTANCE: PANEL-1                                                                         
          FORCE     EQUILIBRIUM NOT ACHIEVED WITHIN TOLERANCE.

 AVERAGE MOMENT                     0.868       TIME AVG. MOMENT      0.246    
 LARGEST RESIDUAL MOMENT            7.924E-03   AT NODE        227   DOF  4
   INSTANCE: PANEL-1                                                                         
 LARGEST INCREMENT OF ROTATION      3.422E-03   AT NODE      22726   DOF  4
   INSTANCE: PANEL-1                                                                         
 LARGEST CORRECTION TO ROTATION     3.422E-03   AT NODE      22726   DOF  4
   INSTANCE: PANEL-1                                                                         
          MOMENT    EQUILIBRIUM NOT ACHIEVED WITHIN TOLERANCE.

  NUMBER OF EQUATIONS =    136656     NUMBER OF RHS =    2
  NUMBER OF FLOATING PT. OPERATIONS =  1.44E+10

     CHECK POINT   START OF SOLVER    

     CHECK POINT  END OF SOLVER       

       ELAPSED USER TIME (SEC)      =  0.20000    
       ELAPSED SYSTEM TIME (SEC)    =   0.0000    
       ELAPSED TOTAL CPU TIME (SEC) =  0.20000    
       ELAPSED WALLCLOCK TIME (SEC) =          1

               CONVERGENCE CHECKS FOR EQUILIBRIUM ITERATION     2


 AVERAGE FORCE                       382.       TIME AVG. FORCE        272.    
 LARGEST RESIDUAL FORCE              8.36       AT NODE        151   DOF  1
   INSTANCE: PANEL-1                                                                         
 LARGEST INCREMENT OF DISP.         3.049E-03   AT NODE      11401   DOF  3
   INSTANCE: PANEL-1                                                                         
 LARGEST CORRECTION TO DISP.       -3.875E-05   AT NODE      11401   DOF  3
   INSTANCE: PANEL-1                                                                         
          FORCE     EQUILIBRIUM NOT ACHIEVED WITHIN TOLERANCE.

 AVERAGE MOMENT                     0.871       TIME AVG. MOMENT      0.247    
 LARGEST RESIDUAL MOMENT            6.036E-05   AT NODE      22598   DOF  4
   INSTANCE: PANEL-1                                                                         
 LARGEST INCREMENT OF ROTATION     -3.463E-03   AT NODE         76   DOF  4
   INSTANCE: PANEL-1                                                                         
 LARGEST CORRECTION TO ROTATION     7.209E-05   AT NODE      22767   DOF  4
   INSTANCE: PANEL-1                                                                         
          ROTATION CORRECTION TOO LARGE COMPARED TO ROTATION INCREMENT

  NUMBER OF EQUATIONS =    136656     NUMBER OF RHS =    2
  NUMBER OF FLOATING PT. OPERATIONS =  1.44E+10

     CHECK POINT   START OF SOLVER    

     CHECK POINT  END OF SOLVER       

       ELAPSED USER TIME (SEC)      =  0.30000    
       ELAPSED SYSTEM TIME (SEC)    =   0.0000    
       ELAPSED TOTAL CPU TIME (SEC) =  0.30000    
       ELAPSED WALLCLOCK TIME (SEC) =          1

               CONVERGENCE CHECKS FOR EQUILIBRIUM ITERATION     3


 AVERAGE FORCE                       382.       TIME AVG. FORCE        272.    
 LARGEST RESIDUAL FORCE             7.292E-03   AT NODE        151   DOF  1
   INSTANCE: PANEL-1                                                                         
 LARGEST INCREMENT OF DISP.         3.048E-03   AT NODE      11401   DOF  3
   INSTANCE: PANEL-1                                                                         
 LARGEST CORRECTION TO DISP.       -8.082E-07   AT NODE      11401   DOF  3
   INSTANCE: PANEL-1                                                                         
          THE FORCE     EQUILIBRIUM EQUATIONS HAVE CONVERGED

 AVERAGE MOMENT                     0.871       TIME AVG. MOMENT      0.247    
 LARGEST RESIDUAL MOMENT           -6.486E-08   AT NODE      15383   DOF  6
   INSTANCE: PANEL-1                                                                         
 LARGEST INCREMENT OF ROTATION     -3.464E-03   AT NODE         76   DOF  4
   INSTANCE: PANEL-1                                                                         
 LARGEST CORRECTION TO ROTATION    -1.810E-06   AT NODE       6191   DOF  5
   INSTANCE: PANEL-1                                                                         
          THE MOMENT    EQUILIBRIUM EQUATIONS HAVE CONVERGED
          ARC LENGTH INCREMENT MAY NOW INCREASE TO     1.92    

 ITERATION SUMMARY FOR THE INCREMENT:   3 TOTAL ITERATIONS, OF WHICH
   0 ARE SEVERE DISCONTINUITY ITERATIONS AND  3 ARE EQUILIBRIUM ITERATIONS.


                                INCREMENT    10 SUMMARY


     CURRENT LOAD PROPORTIONALITY FACTOR         0.2932    
     TOTAL ARC LENGTH    3.79    , INCREMENT OF ARC LENGTH    1.28    


  INCREMENT    11 STARTS. ATTEMPT NUMBER  1

  NUMBER OF EQUATIONS =    136656     NUMBER OF RHS =    2
  NUMBER OF FLOATING PT. OPERATIONS =  1.44E+10

     CHECK POINT   START OF SOLVER    

     CHECK POINT  END OF SOLVER       

       ELAPSED USER TIME (SEC)      =  0.50000    
       ELAPSED SYSTEM TIME (SEC)    =  0.10000    
       ELAPSED TOTAL CPU TIME (SEC) =  0.60000    
       ELAPSED WALLCLOCK TIME (SEC) =          1

               CONVERGENCE CHECKS FOR EQUILIBRIUM ITERATION     1


 AVERAGE FORCE                       458.       TIME AVG. FORCE        289.    
 LARGEST RESIDUAL FORCE             4.943E+04   AT NODE        151   DOF  1
   INSTANCE: PANEL-1                                                                         
 LARGEST INCREMENT OF DISP.         4.506E-03   AT NODE      11401   DOF  3
   INSTANCE: PANEL-1                                                                         
 LARGEST CORRECTION TO DISP.        4.506E-03   AT NODE      11401   DOF  3
   INSTANCE: PANEL-1                                                                         
          FORCE     EQUILIBRIUM NOT ACHIEVED WITHIN TOLERANCE.

 AVERAGE MOMENT                      1.32       TIME AVG. MOMENT      0.345    
 LARGEST RESIDUAL MOMENT            2.628E-02   AT NODE        227   DOF  4
   INSTANCE: PANEL-1                                                                         
 LARGEST INCREMENT OF ROTATION      5.264E-03   AT NODE      22726   DOF  4
   INSTANCE: PANEL-1                                                                         
 LARGEST CORRECTION TO ROTATION     5.264E-03   AT NODE      22726   DOF  4
   INSTANCE: PANEL-1                                                                         
          MOMENT    EQUILIBRIUM NOT ACHIEVED WITHIN TOLERANCE.

  NUMBER OF EQUATIONS =    136656     NUMBER OF RHS =    2
  NUMBER OF FLOATING PT. OPERATIONS =  1.44E+10

     CHECK POINT   START OF SOLVER    

     CHECK POINT  END OF SOLVER       

       ELAPSED USER TIME (SEC)      =  0.40000    
       ELAPSED SYSTEM TIME (SEC)    =   0.0000    
       ELAPSED TOTAL CPU TIME (SEC) =  0.40000    
       ELAPSED WALLCLOCK TIME (SEC) =          1

               CONVERGENCE CHECKS FOR EQUILIBRIUM ITERATION     2


 AVERAGE FORCE                       476.       TIME AVG. FORCE        291.    
 LARGEST RESIDUAL FORCE              64.5       AT NODE        151   DOF  1
   INSTANCE: PANEL-1                                                                         
 LARGEST INCREMENT OF DISP.         4.406E-03   AT NODE      11401   DOF  3
   INSTANCE: PANEL-1                                                                         
 LARGEST CORRECTION TO DISP.       -9.913E-05   AT NODE      11401   DOF  3
   INSTANCE: PANEL-1                                                                         
          FORCE     EQUILIBRIUM NOT ACHIEVED WITHIN TOLERANCE.

 AVERAGE MOMENT                      1.33       TIME AVG. MOMENT      0.345    
 LARGEST RESIDUAL MOMENT           -4.155E-04   AT NODE       6039   DOF  5
   INSTANCE: PANEL-1                                                                         
 LARGEST INCREMENT OF ROTATION     -5.362E-03   AT NODE         76   DOF  4
   INSTANCE: PANEL-1                                                                         
 LARGEST CORRECTION TO ROTATION     2.098E-04   AT NODE      22769   DOF  4
   INSTANCE: PANEL-1                                                                         
          ROTATION CORRECTION TOO LARGE COMPARED TO ROTATION INCREMENT

  NUMBER OF EQUATIONS =    136656     NUMBER OF RHS =    2
  NUMBER OF FLOATING PT. OPERATIONS =  1.44E+10

     CHECK POINT   START OF SOLVER    

     CHECK POINT  END OF SOLVER       

       ELAPSED USER TIME (SEC)      =  0.40000    
       ELAPSED SYSTEM TIME (SEC)    =   0.0000    
       ELAPSED TOTAL CPU TIME (SEC) =  0.40000    
       ELAPSED WALLCLOCK TIME (SEC) =          1

               CONVERGENCE CHECKS FOR EQUILIBRIUM ITERATION     3


 AVERAGE FORCE                       475.       TIME AVG. FORCE        291.    
 LARGEST RESIDUAL FORCE             0.288       AT NODE        151   DOF  1
   INSTANCE: PANEL-1                                                                         
 LARGEST INCREMENT OF DISP.         4.402E-03   AT NODE      11401   DOF  3
   INSTANCE: PANEL-1                                                                         
 LARGEST CORRECTION TO DISP.       -4.798E-06   AT NODE      11401   DOF  3
   INSTANCE: PANEL-1                                                                         
          THE FORCE     EQUILIBRIUM EQUATIONS HAVE CONVERGED

 AVERAGE MOMENT                      1.33       TIME AVG. MOMENT      0.345    
 LARGEST RESIDUAL MOMENT           -6.165E-07   AT NODE       6965   DOF  6
   INSTANCE: PANEL-1                                                                         
 LARGEST INCREMENT OF ROTATION      5.367E-03   AT NODE      22726   DOF  4
   INSTANCE: PANEL-1                                                                         
 LARGEST CORRECTION TO ROTATION    -1.173E-05   AT NODE      17214   DOF  5
   INSTANCE: PANEL-1                                                                         
          THE MOMENT    EQUILIBRIUM EQUATIONS HAVE CONVERGED
          ARC LENGTH INCREMENT MAY NOW INCREASE TO     2.88    

 ITERATION SUMMARY FOR THE INCREMENT:   3 TOTAL ITERATIONS, OF WHICH
   0 ARE SEVERE DISCONTINUITY ITERATIONS AND  3 ARE EQUILIBRIUM ITERATIONS.


                                INCREMENT    11 SUMMARY


     CURRENT LOAD PROPORTIONALITY FACTOR         0.3580    
     TOTAL ARC LENGTH    5.72    , INCREMENT OF ARC LENGTH    1.92    


  INCREMENT    12 STARTS. ATTEMPT NUMBER  1

  NUMBER OF EQUATIONS =    136656     NUMBER OF RHS =    2
  NUMBER OF FLOATING PT. OPERATIONS =  1.44E+10

     CHECK POINT   START OF SOLVER    

     CHECK POINT  END OF SOLVER       

       ELAPSED USER TIME (SEC)      =  0.30000    
       ELAPSED SYSTEM TIME (SEC)    =  0.10000    
       ELAPSED TOTAL CPU TIME (SEC) =  0.40000    
       ELAPSED WALLCLOCK TIME (SEC) =          0

               CONVERGENCE CHECKS FOR EQUILIBRIUM ITERATION     1


 AVERAGE FORCE                       618.       TIME AVG. FORCE        318.    
 LARGEST RESIDUAL FORCE             1.272E+05   AT NODE        151   DOF  1
   INSTANCE: PANEL-1                                                                         
 LARGEST INCREMENT OF DISP.         6.435E-03   AT NODE      11401   DOF  3
   INSTANCE: PANEL-1                                                                         
 LARGEST CORRECTION TO DISP.        6.435E-03   AT NODE      11401   DOF  3
   INSTANCE: PANEL-1                                                                         
          FORCE     EQUILIBRIUM NOT ACHIEVED WITHIN TOLERANCE.

 AVERAGE MOMENT                      2.05       TIME AVG. MOMENT      0.487    
 LARGEST RESIDUAL MOMENT           -9.103E-02   AT NODE      22575   DOF  4
   INSTANCE: PANEL-1                                                                         
 LARGEST INCREMENT OF ROTATION      8.201E-03   AT NODE      22726   DOF  4
   INSTANCE: PANEL-1                                                                         
 LARGEST CORRECTION TO ROTATION     8.201E-03   AT NODE      22726   DOF  4
   INSTANCE: PANEL-1                                                                         
          MOMENT    EQUILIBRIUM NOT ACHIEVED WITHIN TOLERANCE.

  NUMBER OF EQUATIONS =    136656     NUMBER OF RHS =    2
  NUMBER OF FLOATING PT. OPERATIONS =  1.44E+10

     CHECK POINT   START OF SOLVER    

     CHECK POINT  END OF SOLVER       

       ELAPSED USER TIME (SEC)      =  0.50000    
       ELAPSED SYSTEM TIME (SEC)    =   0.0000    
       ELAPSED TOTAL CPU TIME (SEC) =  0.50000    
       ELAPSED WALLCLOCK TIME (SEC) =          1

               CONVERGENCE CHECKS FOR EQUILIBRIUM ITERATION     2


 AVERAGE FORCE                       656.       TIME AVG. FORCE        321.    
 LARGEST RESIDUAL FORCE              425.       AT NODE        151   DOF  1
   INSTANCE: PANEL-1                                                                         
 LARGEST INCREMENT OF DISP.         6.226E-03   AT NODE      11401   DOF  3
   INSTANCE: PANEL-1                                                                         
 LARGEST CORRECTION TO DISP.       -2.091E-04   AT NODE      11401   DOF  3
   INSTANCE: PANEL-1                                                                         
          FORCE     EQUILIBRIUM NOT ACHIEVED WITHIN TOLERANCE.

 AVERAGE MOMENT                      2.07       TIME AVG. MOMENT      0.489    
 LARGEST RESIDUAL MOMENT            2.738E-03   AT NODE      17518   DOF  5
   INSTANCE: PANEL-1                                                                         
 LARGEST INCREMENT OF ROTATION      8.360E-03   AT NODE      22726   DOF  4
   INSTANCE: PANEL-1                                                                         
 LARGEST CORRECTION TO ROTATION    -5.798E-04   AT NODE         30   DOF  4
   INSTANCE: PANEL-1                                                                         
          MOMENT    EQUILIBRIUM NOT ACHIEVED WITHIN TOLERANCE.

  NUMBER OF EQUATIONS =    136656     NUMBER OF RHS =    2
  NUMBER OF FLOATING PT. OPERATIONS =  1.44E+10

     CHECK POINT   START OF SOLVER    

     CHECK POINT  END OF SOLVER       

       ELAPSED USER TIME (SEC)      =  0.40000    
       ELAPSED SYSTEM TIME (SEC)    =   0.0000    
       ELAPSED TOTAL CPU TIME (SEC) =  0.40000    
       ELAPSED WALLCLOCK TIME (SEC) =          1

               CONVERGENCE CHECKS FOR EQUILIBRIUM ITERATION     3


 AVERAGE FORCE                       654.       TIME AVG. FORCE        321.    
 LARGEST RESIDUAL FORCE              6.84       AT NODE        151   DOF  1
   INSTANCE: PANEL-1                                                                         
 LARGEST INCREMENT OF DISP.         6.206E-03   AT NODE      11401   DOF  3
   INSTANCE: PANEL-1                                                                         
 LARGEST CORRECTION TO DISP.       -2.028E-05   AT NODE      11401   DOF  3
   INSTANCE: PANEL-1                                                                         
          FORCE     EQUILIBRIUM NOT ACHIEVED WITHIN TOLERANCE.

 AVERAGE MOMENT                      2.07       TIME AVG. MOMENT      0.489    
 LARGEST RESIDUAL MOMENT            4.858E-06   AT NODE      17363   DOF  5
   INSTANCE: PANEL-1                                                                         
 LARGEST INCREMENT OF ROTATION     -8.376E-03   AT NODE         76   DOF  4
   INSTANCE: PANEL-1                                                                         
 LARGEST CORRECTION TO ROTATION     6.252E-05   AT NODE       4833   DOF  5
   INSTANCE: PANEL-1                                                                         
          THE MOMENT    EQUILIBRIUM EQUATIONS HAVE CONVERGED

  NUMBER OF EQUATIONS =    136656     NUMBER OF RHS =    2
  NUMBER OF FLOATING PT. OPERATIONS =  1.44E+10

     CHECK POINT   START OF SOLVER    

     CHECK POINT  END OF SOLVER       

       ELAPSED USER TIME (SEC)      =  0.50000    
       ELAPSED SYSTEM TIME (SEC)    =   0.0000    
       ELAPSED TOTAL CPU TIME (SEC) =  0.50000    
       ELAPSED WALLCLOCK TIME (SEC) =          1

               CONVERGENCE CHECKS FOR EQUILIBRIUM ITERATION     4


 AVERAGE FORCE                       654.       TIME AVG. FORCE        321.    
 LARGEST RESIDUAL FORCE            -6.355E-05   AT NODE        151   DOF  1
   INSTANCE: PANEL-1                                                                         
 LARGEST INCREMENT OF DISP.         6.206E-03   AT NODE      11401   DOF  3
   INSTANCE: PANEL-1                                                                         
 LARGEST CORRECTION TO DISP.        4.004E-08   AT NODE      18498   DOF  3
   INSTANCE: PANEL-1                                                                         
          THE FORCE     EQUILIBRIUM EQUATIONS HAVE CONVERGED

 AVERAGE MOMENT                      2.07       TIME AVG. MOMENT      0.489    
 LARGEST RESIDUAL MOMENT           -2.057E-08   AT NODE        126   DOF  5
   INSTANCE: PANEL-1                                                                         
 LARGEST INCREMENT OF ROTATION      8.376E-03   AT NODE      22726   DOF  4
   INSTANCE: PANEL-1                                                                         
 LARGEST CORRECTION TO ROTATION     1.182E-07   AT NODE      22726   DOF  4
   INSTANCE: PANEL-1                                                                         
          THE MOMENT    EQUILIBRIUM EQUATIONS HAVE CONVERGED
          ARC LENGTH INCREMENT MAY NOW INCREASE TO     4.32    

 ITERATION SUMMARY FOR THE INCREMENT:   4 TOTAL ITERATIONS, OF WHICH
   0 ARE SEVERE DISCONTINUITY ITERATIONS AND  4 ARE EQUILIBRIUM ITERATIONS.


                                INCREMENT    12 SUMMARY


     CURRENT LOAD PROPORTIONALITY FACTOR         0.4769    
     TOTAL ARC LENGTH    8.60    , INCREMENT OF ARC LENGTH    2.88    


  INCREMENT    13 STARTS. ATTEMPT NUMBER  1

  NUMBER OF EQUATIONS =    136656     NUMBER OF RHS =    2
  NUMBER OF FLOATING PT. OPERATIONS =  1.44E+10

     CHECK POINT   START OF SOLVER    

     CHECK POINT  END OF SOLVER       

       ELAPSED USER TIME (SEC)      =  0.50000    
       ELAPSED SYSTEM TIME (SEC)    =   0.0000    
       ELAPSED TOTAL CPU TIME (SEC) =  0.50000    
       ELAPSED WALLCLOCK TIME (SEC) =          0

               CONVERGENCE CHECKS FOR EQUILIBRIUM ITERATION     1


 AVERAGE FORCE                       956.       TIME AVG. FORCE        370.    
 LARGEST RESIDUAL FORCE             3.498E+05   AT NODE        151   DOF  1
   INSTANCE: PANEL-1                                                                         
 LARGEST INCREMENT OF DISP.         8.965E-03   AT NODE      11401   DOF  3
   INSTANCE: PANEL-1                                                                         
 LARGEST CORRECTION TO DISP.        8.965E-03   AT NODE      11401   DOF  3
   INSTANCE: PANEL-1                                                                         
          FORCE     EQUILIBRIUM NOT ACHIEVED WITHIN TOLERANCE.

 AVERAGE MOMENT                      3.24       TIME AVG. MOMENT      0.700    
 LARGEST RESIDUAL MOMENT            0.312       AT NODE        219   DOF  4
   INSTANCE: PANEL-1                                                                         
 LARGEST INCREMENT OF ROTATION      1.280E-02   AT NODE      22741   DOF  4
   INSTANCE: PANEL-1                                                                         
 LARGEST CORRECTION TO ROTATION     1.280E-02   AT NODE      22741   DOF  4
   INSTANCE: PANEL-1                                                                         
          MOMENT    EQUILIBRIUM NOT ACHIEVED WITHIN TOLERANCE.

  NUMBER OF EQUATIONS =    136656     NUMBER OF RHS =    2
  NUMBER OF FLOATING PT. OPERATIONS =  1.44E+10

     CHECK POINT   START OF SOLVER    

     CHECK POINT  END OF SOLVER       

       ELAPSED USER TIME (SEC)      =  0.30000    
       ELAPSED SYSTEM TIME (SEC)    =  0.10000    
       ELAPSED TOTAL CPU TIME (SEC) =  0.40000    
       ELAPSED WALLCLOCK TIME (SEC) =          0

               CONVERGENCE CHECKS FOR EQUILIBRIUM ITERATION     2


 AVERAGE FORCE                       987.       TIME AVG. FORCE        372.    
 LARGEST RESIDUAL FORCE             2.353E+03   AT NODE        151   DOF  1
   INSTANCE: PANEL-1                                                                         
 LARGEST INCREMENT OF DISP.         8.647E-03   AT NODE      11401   DOF  3
   INSTANCE: PANEL-1                                                                         
 LARGEST CORRECTION TO DISP.        4.203E-04   AT NODE      19052   DOF  3
   INSTANCE: PANEL-1                                                                         
          FORCE     EQUILIBRIUM NOT ACHIEVED WITHIN TOLERANCE.

 AVERAGE MOMENT                      3.28       TIME AVG. MOMENT      0.704    
 LARGEST RESIDUAL MOMENT            1.827E-02   AT NODE      22535   DOF  4
   INSTANCE: PANEL-1                                                                         
 LARGEST INCREMENT OF ROTATION      1.331E-02   AT NODE      22698   DOF  4
   INSTANCE: PANEL-1                                                                         
 LARGEST CORRECTION TO ROTATION     1.470E-03   AT NODE      22675   DOF  4
   INSTANCE: PANEL-1                                                                         
          MOMENT    EQUILIBRIUM NOT ACHIEVED WITHIN TOLERANCE.

  NUMBER OF EQUATIONS =    136656     NUMBER OF RHS =    2
  NUMBER OF FLOATING PT. OPERATIONS =  1.44E+10

     CHECK POINT   START OF SOLVER    

     CHECK POINT  END OF SOLVER       

       ELAPSED USER TIME (SEC)      =  0.50000    
       ELAPSED SYSTEM TIME (SEC)    =   0.0000    
       ELAPSED TOTAL CPU TIME (SEC) =  0.50000    
       ELAPSED WALLCLOCK TIME (SEC) =          1

               CONVERGENCE CHECKS FOR EQUILIBRIUM ITERATION     3


 AVERAGE FORCE                       977.       TIME AVG. FORCE        372.    
 LARGEST RESIDUAL FORCE              126.       AT NODE        151   DOF  1
   INSTANCE: PANEL-1                                                                         
 LARGEST INCREMENT OF DISP.         8.591E-03   AT NODE      11401   DOF  3
   INSTANCE: PANEL-1                                                                         
 LARGEST CORRECTION TO DISP.        8.446E-05   AT NODE      19304   DOF  3
   INSTANCE: PANEL-1                                                                         
          FORCE     EQUILIBRIUM NOT ACHIEVED WITHIN TOLERANCE.

 AVERAGE MOMENT                      3.30       TIME AVG. MOMENT      0.705    
 LARGEST RESIDUAL MOMENT           -1.365E-04   AT NODE        170   DOF  5
   INSTANCE: PANEL-1                                                                         
 LARGEST INCREMENT OF ROTATION      1.350E-02   AT NODE      22756   DOF  4
   INSTANCE: PANEL-1                                                                         
 LARGEST CORRECTION TO ROTATION     3.121E-04   AT NODE      22774   DOF  4
   INSTANCE: PANEL-1                                                                         
 ESTIMATE OF ROTATION CORRECTION   -2.331E-06
 MOMENT    EQUILIB. ACCEPTED BASED ON SMALL RESIDUAL AND ESTIMATED CORRECTION

  NUMBER OF EQUATIONS =    136656     NUMBER OF RHS =    2
  NUMBER OF FLOATING PT. OPERATIONS =  1.44E+10

     CHECK POINT   START OF SOLVER    

     CHECK POINT  END OF SOLVER       

       ELAPSED USER TIME (SEC)      =  0.40000    
       ELAPSED SYSTEM TIME (SEC)    =   0.0000    
       ELAPSED TOTAL CPU TIME (SEC) =  0.40000    
       ELAPSED WALLCLOCK TIME (SEC) =          1

               CONVERGENCE CHECKS FOR EQUILIBRIUM ITERATION     4


 AVERAGE FORCE                       977.       TIME AVG. FORCE        372.    
 LARGEST RESIDUAL FORCE             5.337E-03   AT NODE        151   DOF  1
   INSTANCE: PANEL-1                                                                         
 LARGEST INCREMENT OF DISP.         8.591E-03   AT NODE      11401   DOF  3
   INSTANCE: PANEL-1                                                                         
 LARGEST CORRECTION TO DISP.        6.307E-07   AT NODE       4002   DOF  3
   INSTANCE: PANEL-1                                                                         
          THE FORCE     EQUILIBRIUM EQUATIONS HAVE CONVERGED

 AVERAGE MOMENT                      3.30       TIME AVG. MOMENT      0.705    
 LARGEST RESIDUAL MOMENT            8.764E-07   AT NODE      22671   DOF  5
   INSTANCE: PANEL-1                                                                         
 LARGEST INCREMENT OF ROTATION      1.350E-02   AT NODE      22756   DOF  4
   INSTANCE: PANEL-1                                                                         
 LARGEST CORRECTION TO ROTATION    -2.036E-06   AT NODE         76   DOF  4
   INSTANCE: PANEL-1                                                                         
          THE MOMENT    EQUILIBRIUM EQUATIONS HAVE CONVERGED
          ARC LENGTH INCREMENT MAY NOW INCREASE TO     6.49    

 ITERATION SUMMARY FOR THE INCREMENT:   4 TOTAL ITERATIONS, OF WHICH
   0 ARE SEVERE DISCONTINUITY ITERATIONS AND  4 ARE EQUILIBRIUM ITERATIONS.


                                INCREMENT    13 SUMMARY


     CURRENT LOAD PROPORTIONALITY FACTOR         0.6858    
     TOTAL ARC LENGTH    12.9    , INCREMENT OF ARC LENGTH    4.32    


  INCREMENT    14 STARTS. ATTEMPT NUMBER  1

  NUMBER OF EQUATIONS =    136656     NUMBER OF RHS =    2
  NUMBER OF FLOATING PT. OPERATIONS =  1.44E+10

     CHECK POINT   START OF SOLVER    

     CHECK POINT  END OF SOLVER       

       ELAPSED USER TIME (SEC)      =  0.60000    
       ELAPSED SYSTEM TIME (SEC)    =   0.0000    
       ELAPSED TOTAL CPU TIME (SEC) =  0.60000    
       ELAPSED WALLCLOCK TIME (SEC) =          1

               CONVERGENCE CHECKS FOR EQUILIBRIUM ITERATION     1


 AVERAGE FORCE                      1.681E+03   TIME AVG. FORCE        465.    
 LARGEST RESIDUAL FORCE             1.019E+06   AT NODE        151   DOF  1
   INSTANCE: PANEL-1                                                                         
 LARGEST INCREMENT OF DISP.         1.241E-02   AT NODE      11401   DOF  3
   INSTANCE: PANEL-1                                                                         
 LARGEST CORRECTION TO DISP.        1.241E-02   AT NODE      11401   DOF  3
   INSTANCE: PANEL-1                                                                         
          FORCE     EQUILIBRIUM NOT ACHIEVED WITHIN TOLERANCE.

 AVERAGE MOMENT                      5.31       TIME AVG. MOMENT       1.03    
 LARGEST RESIDUAL MOMENT             1.34       AT NODE        191   DOF  4
   INSTANCE: PANEL-1                                                                         
 LARGEST INCREMENT OF ROTATION      2.191E-02   AT NODE      22689   DOF  4
   INSTANCE: PANEL-1                                                                         
 LARGEST CORRECTION TO ROTATION     2.191E-02   AT NODE      22689   DOF  4
   INSTANCE: PANEL-1                                                                         
          MOMENT    EQUILIBRIUM NOT ACHIEVED WITHIN TOLERANCE.

  NUMBER OF EQUATIONS =    136656     NUMBER OF RHS =    2
  NUMBER OF FLOATING PT. OPERATIONS =  1.44E+10

     CHECK POINT   START OF SOLVER    

     CHECK POINT  END OF SOLVER       

       ELAPSED USER TIME (SEC)      =  0.40000    
       ELAPSED SYSTEM TIME (SEC)    =   0.0000    
       ELAPSED TOTAL CPU TIME (SEC) =  0.40000    
       ELAPSED WALLCLOCK TIME (SEC) =          0

               CONVERGENCE CHECKS FOR EQUILIBRIUM ITERATION     2


 AVERAGE FORCE                      1.519E+03   TIME AVG. FORCE        453.    
 LARGEST RESIDUAL FORCE             6.744E+03   AT NODE        151   DOF  1
   INSTANCE: PANEL-1                                                                         
 LARGEST INCREMENT OF DISP.         1.220E-02   AT NODE      11401   DOF  3
   INSTANCE: PANEL-1                                                                         
 LARGEST CORRECTION TO DISP.        6.050E-04   AT NODE       2850   DOF  3
   INSTANCE: PANEL-1                                                                         
          FORCE     EQUILIBRIUM NOT ACHIEVED WITHIN TOLERANCE.

 AVERAGE MOMENT                      5.38       TIME AVG. MOMENT       1.04    
 LARGEST RESIDUAL MOMENT           -0.107       AT NODE        178   DOF  4
   INSTANCE: PANEL-1                                                                         
 LARGEST INCREMENT OF ROTATION      2.333E-02   AT NODE      22685   DOF  4
   INSTANCE: PANEL-1                                                                         
 LARGEST CORRECTION TO ROTATION    -2.835E-03   AT NODE        133   DOF  4
   INSTANCE: PANEL-1                                                                         
          MOMENT    EQUILIBRIUM NOT ACHIEVED WITHIN TOLERANCE.

  NUMBER OF EQUATIONS =    136656     NUMBER OF RHS =    2
  NUMBER OF FLOATING PT. OPERATIONS =  1.44E+10

     CHECK POINT   START OF SOLVER    

     CHECK POINT  END OF SOLVER       

       ELAPSED USER TIME (SEC)      =  0.50000    
       ELAPSED SYSTEM TIME (SEC)    =   0.0000    
       ELAPSED TOTAL CPU TIME (SEC) =  0.50000    
       ELAPSED WALLCLOCK TIME (SEC) =          1

               CONVERGENCE CHECKS FOR EQUILIBRIUM ITERATION     3


 AVERAGE FORCE                      1.481E+03   TIME AVG. FORCE        451.    
 LARGEST RESIDUAL FORCE             1.346E+03   AT NODE        151   DOF  1
   INSTANCE: PANEL-1                                                                         
 LARGEST INCREMENT OF DISP.         1.214E-02   AT NODE      11401   DOF  3
   INSTANCE: PANEL-1                                                                         
 LARGEST CORRECTION TO DISP.        2.409E-04   AT NODE       2850   DOF  3
   INSTANCE: PANEL-1                                                                         
          FORCE     EQUILIBRIUM NOT ACHIEVED WITHIN TOLERANCE.

 AVERAGE MOMENT                      5.42       TIME AVG. MOMENT       1.04    
 LARGEST RESIDUAL MOMENT            3.030E-03   AT NODE        288   DOF  5
   INSTANCE: PANEL-1                                                                         
 LARGEST INCREMENT OF ROTATION     -2.420E-02   AT NODE        119   DOF  4
   INSTANCE: PANEL-1                                                                         
 LARGEST CORRECTION TO ROTATION    -1.156E-03   AT NODE        131   DOF  4
   INSTANCE: PANEL-1                                                                         
 ESTIMATE OF ROTATION CORRECTION    3.285E-05
 MOMENT    EQUILIB. ACCEPTED BASED ON SMALL RESIDUAL AND ESTIMATED CORRECTION

  NUMBER OF EQUATIONS =    136656     NUMBER OF RHS =    2
  NUMBER OF FLOATING PT. OPERATIONS =  1.44E+10

     CHECK POINT   START OF SOLVER    

     CHECK POINT  END OF SOLVER       

       ELAPSED USER TIME (SEC)      =  0.30000    
       ELAPSED SYSTEM TIME (SEC)    =   0.0000    
       ELAPSED TOTAL CPU TIME (SEC) =  0.30000    
       ELAPSED WALLCLOCK TIME (SEC) =          1

               CONVERGENCE CHECKS FOR EQUILIBRIUM ITERATION     4


 AVERAGE FORCE                      1.481E+03   TIME AVG. FORCE        451.    
 LARGEST RESIDUAL FORCE             0.590       AT NODE        151   DOF  1
   INSTANCE: PANEL-1                                                                         
 LARGEST INCREMENT OF DISP.         1.214E-02   AT NODE      11401   DOF  3
   INSTANCE: PANEL-1                                                                         
 LARGEST CORRECTION TO DISP.       -4.803E-06   AT NODE      19045   DOF  3
   INSTANCE: PANEL-1                                                                         
          THE FORCE     EQUILIBRIUM EQUATIONS HAVE CONVERGED

 AVERAGE MOMENT                      5.42       TIME AVG. MOMENT       1.04    
 LARGEST RESIDUAL MOMENT           -2.400E-05   AT NODE      22786   DOF  5
   INSTANCE: PANEL-1                                                                         
 LARGEST INCREMENT OF ROTATION      2.419E-02   AT NODE      22769   DOF  4
   INSTANCE: PANEL-1                                                                         
 LARGEST CORRECTION TO ROTATION    -2.198E-05   AT NODE      19027   DOF  5
   INSTANCE: PANEL-1                                                                         
          THE MOMENT    EQUILIBRIUM EQUATIONS HAVE CONVERGED
          ARC LENGTH INCREMENT MAY NOW INCREASE TO     9.73    

 ITERATION SUMMARY FOR THE INCREMENT:   4 TOTAL ITERATIONS, OF WHICH
   0 ARE SEVERE DISCONTINUITY ITERATIONS AND  4 ARE EQUILIBRIUM ITERATIONS.


                                INCREMENT    14 SUMMARY


     CURRENT LOAD PROPORTIONALITY FACTOR          1.031    
     TOTAL ARC LENGTH    19.4    , INCREMENT OF ARC LENGTH    6.49    


  INCREMENT    15 STARTS. ATTEMPT NUMBER  1

  NUMBER OF EQUATIONS =    136656     NUMBER OF RHS =    2
  NUMBER OF FLOATING PT. OPERATIONS =  1.44E+10

     CHECK POINT   START OF SOLVER    

     CHECK POINT  END OF SOLVER       

       ELAPSED USER TIME (SEC)      =  0.40000    
       ELAPSED SYSTEM TIME (SEC)    =   0.0000    
       ELAPSED TOTAL CPU TIME (SEC) =  0.40000    
       ELAPSED WALLCLOCK TIME (SEC) =          1

               CONVERGENCE CHECKS FOR EQUILIBRIUM ITERATION     1


 AVERAGE FORCE                      3.261E+03   TIME AVG. FORCE        638.    
 LARGEST RESIDUAL FORCE             2.871E+06   AT NODE        151   DOF  1
   INSTANCE: PANEL-1                                                                         
 LARGEST INCREMENT OF DISP.         1.803E-02   AT NODE       9136   DOF  3
   INSTANCE: PANEL-1                                                                         
 LARGEST CORRECTION TO DISP.        1.803E-02   AT NODE       9136   DOF  3
   INSTANCE: PANEL-1                                                                         
          FORCE     EQUILIBRIUM NOT ACHIEVED WITHIN TOLERANCE.

 AVERAGE MOMENT                      8.94       TIME AVG. MOMENT       1.57    
 LARGEST RESIDUAL MOMENT             7.16       AT NODE        180   DOF  4
   INSTANCE: PANEL-1                                                                         
 LARGEST INCREMENT OF ROTATION     -3.963E-02   AT NODE         29   DOF  4
   INSTANCE: PANEL-1                                                                         
 LARGEST CORRECTION TO ROTATION    -3.963E-02   AT NODE         29   DOF  4
   INSTANCE: PANEL-1                                                                         
          MOMENT    EQUILIBRIUM NOT ACHIEVED WITHIN TOLERANCE.

  NUMBER OF EQUATIONS =    136656     NUMBER OF RHS =    2
  NUMBER OF FLOATING PT. OPERATIONS =  1.44E+10

     CHECK POINT   START OF SOLVER    

     CHECK POINT  END OF SOLVER       

       ELAPSED USER TIME (SEC)      =  0.50000    
       ELAPSED SYSTEM TIME (SEC)    =   0.0000    
       ELAPSED TOTAL CPU TIME (SEC) =  0.50000    
       ELAPSED WALLCLOCK TIME (SEC) =          0

               CONVERGENCE CHECKS FOR EQUILIBRIUM ITERATION     2


 AVERAGE FORCE                      2.407E+03   TIME AVG. FORCE        581.    
 LARGEST RESIDUAL FORCE             9.902E+03   AT NODE        151   DOF  1
   INSTANCE: PANEL-1                                                                         
 LARGEST INCREMENT OF DISP.         1.810E-02   AT NODE       8230   DOF  3
   INSTANCE: PANEL-1                                                                         
 LARGEST CORRECTION TO DISP.        6.128E-04   AT NODE      21002   DOF  3
   INSTANCE: PANEL-1                                                                         
          FORCE     EQUILIBRIUM NOT ACHIEVED WITHIN TOLERANCE.

 AVERAGE MOMENT                      8.99       TIME AVG. MOMENT       1.57    
 LARGEST RESIDUAL MOMENT            0.476       AT NODE      22633   DOF  4
   INSTANCE: PANEL-1                                                                         
 LARGEST INCREMENT OF ROTATION     -4.103E-02   AT NODE         25   DOF  4
   INSTANCE: PANEL-1                                                                         
 LARGEST CORRECTION TO ROTATION     4.513E-03   AT NODE      22662   DOF  4
[...]

 AVERAGE MOMENT                      27.6       TIME AVG. MOMENT       21.1    
 LARGEST RESIDUAL MOMENT             2.03       AT NODE       5361   DOF  4
   INSTANCE: PANEL-1                                                                         
 LARGEST INCREMENT OF ROTATION      0.192       AT NODE         76   DOF  4
   INSTANCE: PANEL-1                                                                         
 LARGEST CORRECTION TO ROTATION     1.620E-02   AT NODE       4757   DOF  4
   INSTANCE: PANEL-1                                                                         
          MOMENT    EQUILIBRIUM NOT ACHIEVED WITHIN TOLERANCE.

  NUMBER OF EQUATIONS =    136656     NUMBER OF RHS =    2
  NUMBER OF FLOATING PT. OPERATIONS =  1.44E+10

     CHECK POINT   START OF SOLVER    

     CHECK POINT  END OF SOLVER       

       ELAPSED USER TIME (SEC)      =  0.50000    
       ELAPSED SYSTEM TIME (SEC)    =   0.0000    
       ELAPSED TOTAL CPU TIME (SEC) =  0.50000    
       ELAPSED WALLCLOCK TIME (SEC) =          1

               CONVERGENCE CHECKS FOR EQUILIBRIUM ITERATION     6


 AVERAGE FORCE                      6.692E+03   TIME AVG. FORCE       6.014E+03
 LARGEST RESIDUAL FORCE             1.339E+05   AT NODE        151   DOF  1
   INSTANCE: PANEL-1                                                                         
 LARGEST INCREMENT OF DISP.        -5.799E-02   AT NODE      18800   DOF  3
   INSTANCE: PANEL-1                                                                         
 LARGEST CORRECTION TO DISP.       -1.594E-02   AT NODE      17290   DOF  3
   INSTANCE: PANEL-1                                                                         
          FORCE     EQUILIBRIUM NOT ACHIEVED WITHIN TOLERANCE.

 AVERAGE MOMENT                      30.2       TIME AVG. MOMENT       21.1    
 LARGEST RESIDUAL MOMENT            -19.0       AT NODE      15478   DOF  4
   INSTANCE: PANEL-1                                                                         
 LARGEST INCREMENT OF ROTATION     -0.224       AT NODE      22726   DOF  4
   INSTANCE: PANEL-1                                                                         
 LARGEST CORRECTION TO ROTATION     5.912E-02   AT NODE      15478   DOF  4
   INSTANCE: PANEL-1                                                                         
          MOMENT    EQUILIBRIUM NOT ACHIEVED WITHIN TOLERANCE.
 

 ***NOTE: THE SOLUTION APPEARS TO BE DIVERGING. CONVERGENCE IS JUDGED UNLIKELY.


  INCREMENT    49 STARTS. ATTEMPT NUMBER  2

  NUMBER OF EQUATIONS =    136656     NUMBER OF RHS =    2
  NUMBER OF FLOATING PT. OPERATIONS =  1.44E+10

     CHECK POINT   START OF SOLVER    

     CHECK POINT  END OF SOLVER       

       ELAPSED USER TIME (SEC)      =  0.30000    
       ELAPSED SYSTEM TIME (SEC)    =   0.0000    
       ELAPSED TOTAL CPU TIME (SEC) =  0.30000    
       ELAPSED WALLCLOCK TIME (SEC) =          1
 

 ***WARNING: THE SYSTEM MATRIX HAS 6 NEGATIVE EIGENVALUES.
             EXPLANATIONS ARE SUGGESTED AFTER THE FIRST OCCURRENCE OF THIS MESSAGE.

               CONVERGENCE CHECKS FOR EQUILIBRIUM ITERATION     1


 AVERAGE FORCE                      6.702E+03   TIME AVG. FORCE       6.014E+03
 LARGEST RESIDUAL FORCE             1.539E+05   AT NODE        151   DOF  1
   INSTANCE: PANEL-1                                                                         
 LARGEST INCREMENT OF DISP.        -5.063E-03   AT NODE       3386   DOF  3
   INSTANCE: PANEL-1                                                                         
 LARGEST CORRECTION TO DISP.       -5.063E-03   AT NODE       3386   DOF  3
   INSTANCE: PANEL-1                                                                         
          FORCE     EQUILIBRIUM NOT ACHIEVED WITHIN TOLERANCE.

 AVERAGE MOMENT                      24.6       TIME AVG. MOMENT       21.0    
 LARGEST RESIDUAL MOMENT             1.90       AT NODE        295   DOF  5
   INSTANCE: PANEL-1                                                                         
 LARGEST INCREMENT OF ROTATION      1.949E-02   AT NODE         59   DOF  4
   INSTANCE: PANEL-1                                                                         
 LARGEST CORRECTION TO ROTATION     1.949E-02   AT NODE         59   DOF  4
   INSTANCE: PANEL-1                                                                         
          MOMENT    EQUILIBRIUM NOT ACHIEVED WITHIN TOLERANCE.

  NUMBER OF EQUATIONS =    136656     NUMBER OF RHS =    2
  NUMBER OF FLOATING PT. OPERATIONS =  1.44E+10

     CHECK POINT   START OF SOLVER    

     CHECK POINT  END OF SOLVER       

       ELAPSED USER TIME (SEC)      =  0.50000    
       ELAPSED SYSTEM TIME (SEC)    =   0.0000    
       ELAPSED TOTAL CPU TIME (SEC) =  0.50000    
       ELAPSED WALLCLOCK TIME (SEC) =          1
 

 ***WARNING: THE SYSTEM MATRIX HAS 4 NEGATIVE EIGENVALUES.
             EXPLANATIONS ARE SUGGESTED AFTER THE FIRST OCCURRENCE OF THIS MESSAGE.

               CONVERGENCE CHECKS FOR EQUILIBRIUM ITERATION     2


 AVERAGE FORCE                      6.721E+03   TIME AVG. FORCE       6.015E+03
 LARGEST RESIDUAL FORCE             -87.6       AT NODE         65   DOF  2
   INSTANCE: PANEL-1                                                                         
 LARGEST INCREMENT OF DISP.        -4.895E-03   AT NODE       3688   DOF  3
   INSTANCE: PANEL-1                                                                         
 LARGEST CORRECTION TO DISP.        3.366E-04   AT NODE       2180   DOF  3
   INSTANCE: PANEL-1                                                                         
          FORCE     EQUILIBRIUM NOT ACHIEVED WITHIN TOLERANCE.

 AVERAGE MOMENT                      24.5       TIME AVG. MOMENT       21.0    
 LARGEST RESIDUAL MOMENT            9.043E-02   AT NODE      22562   DOF  4
   INSTANCE: PANEL-1                                                                         
 LARGEST INCREMENT OF ROTATION      1.843E-02   AT NODE         57   DOF  4
   INSTANCE: PANEL-1                                                                         
 LARGEST CORRECTION TO ROTATION    -1.978E-03   AT NODE         65   DOF  4
   INSTANCE: PANEL-1                                                                         
          ROTATION CORRECTION TOO LARGE COMPARED TO ROTATION INCREMENT

  NUMBER OF EQUATIONS =    136656     NUMBER OF RHS =    2
  NUMBER OF FLOATING PT. OPERATIONS =  1.44E+10

     CHECK POINT   START OF SOLVER    

     CHECK POINT  END OF SOLVER       

       ELAPSED USER TIME (SEC)      =  0.40000    
       ELAPSED SYSTEM TIME (SEC)    =   0.0000    
       ELAPSED TOTAL CPU TIME (SEC) =  0.40000    
       ELAPSED WALLCLOCK TIME (SEC) =          0
 

 ***WARNING: THE SYSTEM MATRIX HAS 6 NEGATIVE EIGENVALUES.
             EXPLANATIONS ARE SUGGESTED AFTER THE FIRST OCCURRENCE OF THIS MESSAGE.

               CONVERGENCE CHECKS FOR EQUILIBRIUM ITERATION     3


 AVERAGE FORCE                      6.692E+03   TIME AVG. FORCE       6.014E+03
 LARGEST RESIDUAL FORCE             1.678E+03   AT NODE        151   DOF  1
   INSTANCE: PANEL-1                                                                         
 LARGEST INCREMENT OF DISP.        -5.839E-03   AT NODE       3537   DOF  3
   INSTANCE: PANEL-1                                                                         
 LARGEST CORRECTION TO DISP.       -1.001E-03   AT NODE      19869   DOF  3
   INSTANCE: PANEL-1                                                                         
          FORCE     EQUILIBRIUM NOT ACHIEVED WITHIN TOLERANCE.

 AVERAGE MOMENT                      24.5       TIME AVG. MOMENT       21.0    
 LARGEST RESIDUAL MOMENT            4.756E-02   AT NODE      21840   DOF  5
   INSTANCE: PANEL-1                                                                         
 LARGEST INCREMENT OF ROTATION      2.240E-02   AT NODE         58   DOF  4
   INSTANCE: PANEL-1                                                                         
 LARGEST CORRECTION TO ROTATION    -4.357E-03   AT NODE      22740   DOF  4
   INSTANCE: PANEL-1                                                                         
          ROTATION CORRECTION TOO LARGE COMPARED TO ROTATION INCREMENT

  NUMBER OF EQUATIONS =    136656     NUMBER OF RHS =    2
  NUMBER OF FLOATING PT. OPERATIONS =  1.44E+10

     CHECK POINT   START OF SOLVER    

     CHECK POINT  END OF SOLVER       

       ELAPSED USER TIME (SEC)      =  0.50000    
       ELAPSED SYSTEM TIME (SEC)    =   0.0000    
       ELAPSED TOTAL CPU TIME (SEC) =  0.50000    
       ELAPSED WALLCLOCK TIME (SEC) =          1
 

 ***WARNING: THE SYSTEM MATRIX HAS 6 NEGATIVE EIGENVALUES.
             EXPLANATIONS ARE SUGGESTED AFTER THE FIRST OCCURRENCE OF THIS MESSAGE.

               CONVERGENCE CHECKS FOR EQUILIBRIUM ITERATION     4


 AVERAGE FORCE                      6.695E+03   TIME AVG. FORCE       6.014E+03
 LARGEST RESIDUAL FORCE             0.204       AT NODE      22736   DOF  2
   INSTANCE: PANEL-1                                                                         
 LARGEST INCREMENT OF DISP.        -5.838E-03   AT NODE       3537   DOF  3
   INSTANCE: PANEL-1                                                                         
 LARGEST CORRECTION TO DISP.        1.418E-05   AT NODE       1878   DOF  3
   INSTANCE: PANEL-1                                                                         
          THE FORCE     EQUILIBRIUM EQUATIONS HAVE CONVERGED

 AVERAGE MOMENT                      24.5       TIME AVG. MOMENT       21.0    
 LARGEST RESIDUAL MOMENT           -8.945E-04   AT NODE      22707   DOF  5
   INSTANCE: PANEL-1                                                                         
 LARGEST INCREMENT OF ROTATION      2.238E-02   AT NODE         58   DOF  4
   INSTANCE: PANEL-1                                                                         
 LARGEST CORRECTION TO ROTATION    -9.571E-05   AT NODE         66   DOF  4
   INSTANCE: PANEL-1                                                                         
          THE MOMENT    EQUILIBRIUM EQUATIONS HAVE CONVERGED
          ARC LENGTH INCREMENT MAY NOW INCREASE TO    10.00    

 ITERATION SUMMARY FOR THE INCREMENT:   4 TOTAL ITERATIONS, OF WHICH
   0 ARE SEVERE DISCONTINUITY ITERATIONS AND  4 ARE EQUILIBRIUM ITERATIONS.


                                INCREMENT    49 SUMMARY


     CURRENT LOAD PROPORTIONALITY FACTOR          3.750    
     TOTAL ARC LENGTH    169.    , INCREMENT OF ARC LENGTH    6.67    


  INCREMENT    50 STARTS. ATTEMPT NUMBER  1

  NUMBER OF EQUATIONS =    136656     NUMBER OF RHS =    2
  NUMBER OF FLOATING PT. OPERATIONS =  1.44E+10

     CHECK POINT   START OF SOLVER    

     CHECK POINT  END OF SOLVER       

       ELAPSED USER TIME (SEC)      =  0.40000    
       ELAPSED SYSTEM TIME (SEC)    =   0.0000    
       ELAPSED TOTAL CPU TIME (SEC) =  0.40000    
       ELAPSED WALLCLOCK TIME (SEC) =          1
 

 ***WARNING: THE SYSTEM MATRIX HAS 6 NEGATIVE EIGENVALUES.
             EXPLANATIONS ARE SUGGESTED AFTER THE FIRST OCCURRENCE OF THIS MESSAGE.

               CONVERGENCE CHECKS FOR EQUILIBRIUM ITERATION     1


 AVERAGE FORCE                      6.306E+03   TIME AVG. FORCE       6.020E+03
 LARGEST RESIDUAL FORCE             3.127E+05   AT NODE        151   DOF  1
   INSTANCE: PANEL-1                                                                         
 LARGEST INCREMENT OF DISP.        -8.138E-03   AT NODE       3536   DOF  3
   INSTANCE: PANEL-1                                                                         
 LARGEST CORRECTION TO DISP.       -8.138E-03   AT NODE       3536   DOF  3
   INSTANCE: PANEL-1                                                                         
          FORCE     EQUILIBRIUM NOT ACHIEVED WITHIN TOLERANCE.

 AVERAGE MOMENT                      23.8       TIME AVG. MOMENT       21.1    
 LARGEST RESIDUAL MOMENT             3.70       AT NODE      22643   DOF  5
   INSTANCE: PANEL-1                                                                         
 LARGEST INCREMENT OF ROTATION      3.107E-02   AT NODE         58   DOF  4
   INSTANCE: PANEL-1                                                                         
 LARGEST CORRECTION TO ROTATION     3.107E-02   AT NODE         58   DOF  4
   INSTANCE: PANEL-1                                                                         
          MOMENT    EQUILIBRIUM NOT ACHIEVED WITHIN TOLERANCE.

  NUMBER OF EQUATIONS =    136656     NUMBER OF RHS =    2
  NUMBER OF FLOATING PT. OPERATIONS =  1.44E+10

     CHECK POINT   START OF SOLVER    

     CHECK POINT  END OF SOLVER       

       ELAPSED USER TIME (SEC)      =  0.50000    
       ELAPSED SYSTEM TIME (SEC)    =   0.0000    
       ELAPSED TOTAL CPU TIME (SEC) =  0.50000    
       ELAPSED WALLCLOCK TIME (SEC) =          1
 

 ***WARNING: THE SYSTEM MATRIX HAS 4 NEGATIVE EIGENVALUES.
             EXPLANATIONS ARE SUGGESTED AFTER THE FIRST OCCURRENCE OF THIS MESSAGE.

               CONVERGENCE CHECKS FOR EQUILIBRIUM ITERATION     2


 AVERAGE FORCE                      6.318E+03   TIME AVG. FORCE       6.020E+03
 LARGEST RESIDUAL FORCE              265.       AT NODE        151   DOF  1
   INSTANCE: PANEL-1                                                                         
 LARGEST INCREMENT OF DISP.        -8.130E-03   AT NODE       3535   DOF  3
   INSTANCE: PANEL-1                                                                         
 LARGEST CORRECTION TO DISP.        4.374E-04   AT NODE       2341   DOF  3
   INSTANCE: PANEL-1                                                                         
          FORCE     EQUILIBRIUM NOT ACHIEVED WITHIN TOLERANCE.

 AVERAGE MOMENT                      23.7       TIME AVG. MOMENT       21.1    
 LARGEST RESIDUAL MOMENT           -0.193       AT NODE        215   DOF  4
   INSTANCE: PANEL-1                                                                         
 LARGEST INCREMENT OF ROTATION      3.100E-02   AT NODE         56   DOF  4
   INSTANCE: PANEL-1                                                                         
 LARGEST CORRECTION TO ROTATION     2.607E-03   AT NODE       2323   DOF  5
   INSTANCE: PANEL-1                                                                         
          MOMENT    EQUILIBRIUM NOT ACHIEVED WITHIN TOLERANCE.

  NUMBER OF EQUATIONS =    136656     NUMBER OF RHS =    2
  NUMBER OF FLOATING PT. OPERATIONS =  1.44E+10

     CHECK POINT   START OF SOLVER    

     CHECK POINT  END OF SOLVER       

       ELAPSED USER TIME (SEC)      =  0.40000    
       ELAPSED SYSTEM TIME (SEC)    =   0.0000    
       ELAPSED TOTAL CPU TIME (SEC) =  0.40000    
       ELAPSED WALLCLOCK TIME (SEC) =          0
 

 ***WARNING: THE SYSTEM MATRIX HAS 6 NEGATIVE EIGENVALUES.
             EXPLANATIONS ARE SUGGESTED AFTER THE FIRST OCCURRENCE OF THIS MESSAGE.

               CONVERGENCE CHECKS FOR EQUILIBRIUM ITERATION     3


 AVERAGE FORCE                      6.319E+03   TIME AVG. FORCE       6.020E+03
 LARGEST RESIDUAL FORCE              617.       AT NODE      22741   DOF  2
   INSTANCE: PANEL-1                                                                         
 LARGEST INCREMENT OF DISP.        -9.359E-03   AT NODE       3535   DOF  3
   INSTANCE: PANEL-1                                                                         
 LARGEST CORRECTION TO DISP.       -1.294E-03   AT NODE       3084   DOF  3
   INSTANCE: PANEL-1                                                                         
          FORCE     EQUILIBRIUM NOT ACHIEVED WITHIN TOLERANCE.

 AVERAGE MOMENT                      23.8       TIME AVG. MOMENT       21.1    
 LARGEST RESIDUAL MOMENT            6.654E-02   AT NODE       1154   DOF  5
   INSTANCE: PANEL-1                                                                         
 LARGEST INCREMENT OF ROTATION      3.584E-02   AT NODE         57   DOF  4
   INSTANCE: PANEL-1                                                                         
 LARGEST CORRECTION TO ROTATION     5.213E-03   AT NODE         91   DOF  4
   INSTANCE: PANEL-1                                                                         
          ROTATION CORRECTION TOO LARGE COMPARED TO ROTATION INCREMENT

  NUMBER OF EQUATIONS =    136656     NUMBER OF RHS =    2
  NUMBER OF FLOATING PT. OPERATIONS =  1.44E+10

     CHECK POINT   START OF SOLVER    

     CHECK POINT  END OF SOLVER       

       ELAPSED USER TIME (SEC)      =  0.50000    
       ELAPSED SYSTEM TIME (SEC)    =   0.0000    
       ELAPSED TOTAL CPU TIME (SEC) =  0.50000    
       ELAPSED WALLCLOCK TIME (SEC) =          0
 

 ***WARNING: THE SYSTEM MATRIX HAS 6 NEGATIVE EIGENVALUES.
             EXPLANATIONS ARE SUGGESTED AFTER THE FIRST OCCURRENCE OF THIS MESSAGE.

               CONVERGENCE CHECKS FOR EQUILIBRIUM ITERATION     4


 AVERAGE FORCE                      6.325E+03   TIME AVG. FORCE       6.020E+03
 LARGEST RESIDUAL FORCE             -2.42       AT NODE         87   DOF  2
   INSTANCE: PANEL-1                                                                         
 LARGEST INCREMENT OF DISP.        -9.325E-03   AT NODE       3535   DOF  3
   INSTANCE: PANEL-1                                                                         
 LARGEST CORRECTION TO DISP.        5.901E-05   AT NODE      20450   DOF  3
   INSTANCE: PANEL-1                                                                         
          THE FORCE     EQUILIBRIUM EQUATIONS HAVE CONVERGED

 AVERAGE MOMENT                      23.8       TIME AVG. MOMENT       21.1    
 LARGEST RESIDUAL MOMENT           -1.956E-03   AT NODE        241   DOF  4
   INSTANCE: PANEL-1                                                                         
 LARGEST INCREMENT OF ROTATION      3.566E-02   AT NODE         57   DOF  4
   INSTANCE: PANEL-1                                                                         
 LARGEST CORRECTION TO ROTATION     3.270E-04   AT NODE      22715   DOF  4
   INSTANCE: PANEL-1                                                                         
          THE MOMENT    EQUILIBRIUM EQUATIONS HAVE CONVERGED
          ARC LENGTH INCREMENT MAY NOW INCREASE TO     15.0    

 ITERATION SUMMARY FOR THE INCREMENT:   4 TOTAL ITERATIONS, OF WHICH
   0 ARE SEVERE DISCONTINUITY ITERATIONS AND  4 ARE EQUILIBRIUM ITERATIONS.


                                INCREMENT    50 SUMMARY


     CURRENT LOAD PROPORTIONALITY FACTOR          3.543    
     TOTAL ARC LENGTH    179.    , INCREMENT OF ARC LENGTH   10.00    


     THE NUMBER OF INCS ON THE *STEP CARD HAS BEEN COMPLETED - THE STEP ENDS



     ANALYSIS SUMMARY:
     TOTAL OF         50  INCREMENTS
                       7  CUTBACKS IN AUTOMATIC INCREMENTATION
                     204  ITERATIONS INCLUDING CONTACT ITERATIONS IF PRESENT
                     204  PASSES THROUGH THE EQUATION SOLVER OF WHICH 
                     204  INVOLVE MATRIX DECOMPOSITION, INCLUDING
                       0  DECOMPOSITION(S) OF THE MASS MATRIX
                       1  REORDERING OF EQUATIONS TO MINIMIZE WAVEFRONT
                       0  ADDITIONAL RESIDUAL EVALUATIONS FOR LINE SEARCHES
                       0  ADDITIONAL OPERATOR EVALUATIONS FOR LINE SEARCHES
                       0  WARNING MESSAGES DURING USER INPUT PROCESSING
                     141  WARNING MESSAGES DURING ANALYSIS
                       0  ANALYSIS WARNINGS ARE NUMERICAL PROBLEM MESSAGES
                     141  ANALYSIS WARNINGS ARE NEGATIVE EIGENVALUE MESSAGES
                       0  ERROR MESSAGES



     JOB TIME SUMMARY
       USER TIME (SEC)      =   139.60    
       SYSTEM TIME (SEC)    =   3.9000    
       TOTAL CPU TIME (SEC) =   143.50    
       WALLCLOCK TIME (SEC) =        255
