*Heading
** Job name: buckling_eigen_panel Model name: Model-1
** Generated by: Abaqus/CAE 2020
*Preprint, echo=NO, model=NO, history=NO, contact=NO
**
** PARTS
**
*Part, name=panel
*Node
      1,  -1.20000005,         -1.5,           0.
      2,  -1.22000003,         -1.5,           0.
      3,  -1.24000001,         -1.5,           0.
      4,  -1.25999999,         -1.5,           0.
      5,  -1.27999997,         -1.5,           0.
      6,  -1.29999995,         -1.5,           0.
      7,  -1.31999993,         -1.5,           0.
      8,  -1.33999991,         -1.5,           0.
      9,   -1.3599999,         -1.5,           0.
     10,  -1.38000011,         -1.5,           0.
     11,   -1.4000001,         -1.5,           0.
     12,  -1.42000008,         -1.5,           0.
     13,  -1.44000006,         -1.5,           0.
     14,  -1.46000004,         -1.5,           0.
     15,  -1.48000002,         -1.5,           0.
     16,         -1.5,         -1.5,           0.
     17,         -1.5,  -1.48000002,           0.
     18,         -1.5,  -1.46000004,           0.
     19,         -1.5,  -1.44000006,           0.
     20,         -1.5,  -1.41999996,           0.
** ... 27505 like lines cut
*Element, type=S4R
    1,  2174,  2175,  2585,  2190
    2,  2175,  2176,  2586,  2585
    3,  2176,  2177,  2587,  2586
    4,  2177,  2178,  2588,  2587
    5,  2178,  2179,  2589,  2588
    6,  2179,  2180,  2590,  2589
    7,  2180,  2181,  2591,  2590
    8,  2181,  2182,  2592,  2591
    9,  2182,  2183,  2593,  2592
   10,  2183,  2184,  2594,  2593
   11,  2184,  2185,  2595,  2594
   12,  2185,  2186,  2596,  2595
   13,  2186,  2187,  2597,  2596
   14,  2187,  2188,  2598,  2597
   15,  2188,  2189,  2599,  2598
   16,  2189,  2204,  2600,  2599
   17,  2204,  2205,  2601,  2600
   18,  2205,  2206,  2602,  2601
   19,  2206,  2207,  2603,  2602
   20,  2207,  2208,  2604,  2603
** ... 26800 like lines cut
*Elset, elset=sectionAssignment, generate
     1,  26820,      1
*Elset, elset=left-thickness-region
 23090, 23094, 23095, 23098, 23099, 23100, 23690, 23694, 23695, 23698, 23699, 23700, 24290, 24294, 24295, 24298
 24299, 24300, 24890, 24894, 24895, 24898, 24899, 24900
*Elset, elset=right_thickness_region
 22503, 22504, 22505, 22509, 22510, 22515, 23103, 23104, 23105, 23109, 23110, 23115, 23703, 23704, 23705, 23709
 23710, 23715, 24303, 24304, 24305, 24309, 24310, 24315
** Region: (t-0.01:sectionAssignment)
*Elset, elset=_I1, internal
     1,     2,     3,     4,     5,     6,     7,     8,     9,    10,    11,    12,    13,    14,    15,    16
    17,    18,    19,    20,    21,    22,    23,    24,    25,    26,    27,    28,    29,    30,    31,    32
    33,    34,    35,    36,    37,    38,    39,    40,    41,    42,    43,    44,    45,    46,    47,    48
    49,    50,    51,    52,    53,    54,    55,    56,    57,    58,    59,    60,    61,    62,    63,    64
    65,    66,    67,    68,    69,    70,    71,    72,    73,    74,    75,    76,    77,    78,    79,    80
    81,    82,    83,    84,    85,    86,    87,    88,    89,    90,    91,    92,    93,    94,    95,    96
    97,    98,    99,   100,   101,   102,   103,   104,   105,   106,   107,   108,   109,   110,   111,   112
   113,   114,   115,   116,   117,   118,   119,   120,   121,   122,   123,   124,   125,   126,   127,   128
   129,   130,   131,   132,   133,   134,   135,   136,   137,   138,   139,   140,   141,   142,   143,   144
   145,   146,   147,   148,   149,   150,   151,   152,   153,   154,   155,   156,   157,   158,   159,   160
   161,   162,   163,   164,   165,   166,   167,   168,   169,   170,   171,   172,   173,   174,   175,   176
   177,   178,   179,   180,   181,   182,   183,   184,   185,   186,   187,   188,   189,   190,   191,   192
   193,   194,   195,   196,   197,   198,   199,   200,   201,   202,   203,   204,   205,   206,   207,   208
   209,   210,   211,   212,   213,   214,   215,   216,   217,   218,   219,   220,   221,   222,   223,   224
   225,   226,   227,   228,   229,   230,   231,   232,   233,   234,   235,   236,   237,   238,   239,   240
   241,   242,   243,   244,   245,   246,   247,   248,   249,   250,   251,   252,   253,   254,   255,   256
   257,   258,   259,   260,   261,   262,   263,   264,   265,   266,   267,   268,   269,   270,   271,   272
   273,   274,   275,   276,   277,   278,   279,   280,   281,   282,   283,   284,   285,   286,   287,   288
   289,   290,   291,   292,   293,   294,   295,   296,   297,   298,   299,   300,   301,   302,   303,   304
   305,   306,   307,   308,   309,   310,   311,   312,   313,   314,   315,   316,   317,   318,   319,   320
** ... 1654 like lines cut
** Section: t-0.01
*Shell Section, elset=_I1, material=steel
0.01, 5
** Section: local-thickness
*Shell Section, elset=right_thickness_region, material=steel
0.039, 5
** Section: local-thickness
*Shell Section, elset=left-thickness-region, material=steel
0.039, 5
*End Part
**  
**
** ASSEMBLY
**
*Assembly, name=Assembly
**  
*Instance, name=panel, part=panel
*End Instance
**  
*Nset, nset=Fixed-BC, instance=panel
 2248, 2307, 2423, 2483
*Nset, nset=equation-set-panel-panel-59-75-1, instance=panel
 59,
*Nset, nset=equation-set-panel-panel-59-75-2, instance=panel
 75,
*Nset, nset=equation-set-panel-panel-75-87-1, instance=panel
 75,
*Nset, nset=equation-set-panel-panel-75-87-2, instance=panel
 87,
*Nset, nset=equation-set-panel-panel-75-131-1, instance=panel
 75,
*Nset, nset=equation-set-panel-panel-75-131-2, instance=panel
 131,
*Nset, nset=equation-set-panel-panel-87-88-1, instance=panel
 87,
*Nset, nset=equation-set-panel-panel-87-88-2, instance=panel
 88,
*Nset, nset=equation-set-panel-panel-88-89-1, instance=panel
 88,
*Nset, nset=equation-set-panel-panel-88-89-2, instance=panel
 89,
*Nset, nset=equation-set-panel-panel-89-90-1, instance=panel
 89,
*Nset, nset=equation-set-panel-panel-89-90-2, instance=panel
 90,
*Nset, nset=equation-set-panel-panel-90-91-1, instance=panel
 90,
*Nset, nset=equation-set-panel-panel-90-91-2, instance=panel
 91,
*Nset, nset=equation-set-panel-panel-91-2232-1, instance=panel
 91,
*Nset, nset=equation-set-panel-panel-91-2232-2, instance=panel
 2232,
*Nset, nset=equation-set-panel-panel-130-131-1, instance=panel
 130,
*Nset, nset=equation-set-panel-panel-130-131-2, instance=panel
 131,
*Nset, nset=equation-set-panel-panel-131-143-1, instance=panel
 131,
*Nset, nset=equation-set-panel-panel-131-143-2, instance=panel
** ... 181 like lines cut
*Nset, nset=load_set, instance=panel
 75,
*Nset, nset=middle-bc, instance=panel
 13685,
*Nset, nset=plate-edge, instance=panel
    1,    2,    3,    4,    5,    6,    7,    8,    9,   10,   11,   12,   13,   14,   15,   16
   17,   18,   19,   20,   21,   22,   23,   24,   25,   26,   27,   28,   29,   30,   31,   32
   33,   34,   35,   36,   37,   38,   39,   40,   41,   42,   43,   44,   45,   59,   60,   61
   62,   63,   64,   65,   66,   67,   68,   69,   70,   71,   72,   73,   74,  116,  117,  118
  119,  120,  121,  122,  123,  124,  125,  126,  127,  128,  129,  130,  172,  173,  174,  175
  176,  177,  178,  179,  180,  181,  182,  183,  184,  185,  186,  200,  201,  202,  203,  204
  205,  206,  207,  208,  209,  210,  211,  212,  213,  227,  228,  229,  230,  231,  232,  233
  234,  235,  236,  237,  238,  239,  240,  241,  283,  284,  285,  286,  287,  288,  289,  290
  291,  292,  293,  294,  295,  296,  297,  298,  340,  341,  342,  343,  344,  345,  346,  347
  348,  349,  350,  351,  352,  353,  367,  368,  369,  370,  371,  372,  373,  374,  375,  376
  377,  378,  379,  380,  381,  382,  383,  384,  385,  386,  387,  388,  389,  390,  391,  392
  393,  394,  395,  396,  397,  398,  399,  400,  401,  402,  403,  404,  405,  406,  407,  408
  409,  410,  411,  412,  605,  606,  607,  608,  609,  610,  611,  612,  613,  614,  615,  616
  617,  618,  619,  620,  621,  622,  623,  624,  625,  626,  627,  628,  629,  630,  631,  632
  633,  842,  843,  844,  845,  846,  847,  848,  849,  850,  851,  852,  853,  854,  855,  856
  857,  858,  859,  860,  861,  862,  863,  864,  865,  866,  867,  868,  869,  870, 1047, 1048
 1049, 1050, 1051, 1052, 1053, 1054, 1055, 1056, 1057, 1058, 1059, 1060, 1061, 1062, 1063, 1064
 1065, 1066, 1067, 1068, 1069, 1070, 1071, 1072, 1073, 1074, 1075, 1076, 1269, 1270, 1271, 1272
 1273, 1274, 1275, 1276, 1277, 1278, 1279, 1280, 1281, 1282, 1283, 1284, 1285, 1286, 1287, 1288
 1289, 1290, 1291, 1292, 1293, 1294, 1295, 1296, 1297, 1298, 1299, 1508, 1509, 1510, 1511, 1512
** ... 18 like lines cut
** Constraint: Equation-panel-panel-59-75-2
*Equation
2
equation-set-panel-panel-59-75-1, 2, -1.
equation-set-panel-panel-59-75-2, 2, 1.
** Constraint: Equation-panel-panel-75-87-2
*Equation
2
equation-set-panel-panel-75-87-1, 2, -1.
equation-set-panel-panel-75-87-2, 2, 1.
** Constraint: Equation-panel-panel-75-131-1
*Equation
2
equation-set-panel-panel-75-131-1, 1, -1.
equation-set-panel-panel-75-131-2, 1, 1.
** Constraint: Equation-panel-panel-87-88-2
*Equation
2
equation-set-panel-panel-87-88-1, 2, -1.
equation-set-panel-panel-87-88-2, 2, 1.
** Constraint: Equation-panel-panel-88-89-2
*Equation
2
equation-set-panel-panel-88-89-1, 2, -1.
equation-set-panel-panel-88-89-2, 2, 1.
** Constraint: Equation-panel-panel-89-90-2
*Equation
2
equation-set-panel-panel-89-90-1, 2, -1.
equation-set-panel-panel-89-90-2, 2, 1.
** Constraint: Equation-panel-panel-90-91-2
*Equation
2
equation-set-panel-panel-90-91-1, 2, -1.
equation-set-panel-panel-90-91-2, 2, 1.
** Constraint: Equation-panel-panel-91-2232-2
*Equation
2
equation-set-panel-panel-91-2232-1, 2, -1.
equation-set-panel-panel-91-2232-2, 2, 1.
** Constraint: Equation-panel-panel-130-131-2
*Equation
2
equation-set-panel-panel-130-131-1, 2, -1.
equation-set-panel-panel-130-131-2, 2, 1.
** Constraint: Equation-panel-panel-131-143-2
*Equation
2
equation-set-panel-panel-131-143-1, 2, -1.
equation-set-panel-panel-131-143-2, 2, 1.
** Constraint: Equation-panel-panel-131-242-1
*Equation
2
equation-set-panel-panel-131-242-1, 1, -1.
equation-set-panel-panel-131-242-2, 1, 1.
** Constraint: Equation-panel-panel-143-144-2
*Equation
2
equation-set-panel-panel-143-144-1, 2, -1.
equation-set-panel-panel-143-144-2, 2, 1.
** Constraint: Equation-panel-panel-144-145-2
*Equation
2
equation-set-panel-panel-144-145-1, 2, -1.
equation-set-panel-panel-144-145-2, 2, 1.
** Constraint: Equation-panel-panel-145-146-2
*Equation
2
equation-set-panel-panel-145-146-1, 2, -1.
equation-set-panel-panel-145-146-2, 2, 1.
** Constraint: Equation-panel-panel-146-147-2
*Equation
2
equation-set-panel-panel-146-147-1, 2, -1.
equation-set-panel-panel-146-147-2, 2, 1.
** Constraint: Equation-panel-panel-147-2306-2
*Equation
2
equation-set-panel-panel-147-2306-1, 2, -1.
equation-set-panel-panel-147-2306-2, 2, 1.
** Constraint: Equation-panel-panel-227-242-2
*Equation
2
equation-set-panel-panel-227-242-1, 2, -1.
equation-set-panel-panel-227-242-2, 2, 1.
** Constraint: Equation-panel-panel-242-254-2
*Equation
2
equation-set-panel-panel-242-254-1, 2, -1.
equation-set-panel-panel-242-254-2, 2, 1.
** Constraint: Equation-panel-panel-242-299-1
*Equation
2
equation-set-panel-panel-242-299-1, 1, -1.
equation-set-panel-panel-242-299-2, 1, 1.
** Constraint: Equation-panel-panel-254-255-2
*Equation
2
equation-set-panel-panel-254-255-1, 2, -1.
equation-set-panel-panel-254-255-2, 2, 1.
** Constraint: Equation-panel-panel-255-256-2
*Equation
2
equation-set-panel-panel-255-256-1, 2, -1.
equation-set-panel-panel-255-256-2, 2, 1.
** Constraint: Equation-panel-panel-256-257-2
*Equation
2
equation-set-panel-panel-256-257-1, 2, -1.
equation-set-panel-panel-256-257-2, 2, 1.
** Constraint: Equation-panel-panel-257-258-2
*Equation
2
equation-set-panel-panel-257-258-1, 2, -1.
equation-set-panel-panel-257-258-2, 2, 1.
** Constraint: Equation-panel-panel-258-2408-2
*Equation
2
equation-set-panel-panel-258-2408-1, 2, -1.
equation-set-panel-panel-258-2408-2, 2, 1.
** Constraint: Equation-panel-panel-298-299-2
*Equation
2
equation-set-panel-panel-298-299-1, 2, -1.
equation-set-panel-panel-298-299-2, 2, 1.
** Constraint: Equation-panel-panel-299-311-2
*Equation
2
equation-set-panel-panel-299-311-1, 2, -1.
equation-set-panel-panel-299-311-2, 2, 1.
** Constraint: Equation-panel-panel-311-312-2
*Equation
2
equation-set-panel-panel-311-312-1, 2, -1.
equation-set-panel-panel-311-312-2, 2, 1.
** Constraint: Equation-panel-panel-312-313-2
*Equation
2
equation-set-panel-panel-312-313-1, 2, -1.
equation-set-panel-panel-312-313-2, 2, 1.
** Constraint: Equation-panel-panel-313-314-2
*Equation
2
equation-set-panel-panel-313-314-1, 2, -1.
equation-set-panel-panel-313-314-2, 2, 1.
** Constraint: Equation-panel-panel-314-315-2
*Equation
2
equation-set-panel-panel-314-315-1, 2, -1.
equation-set-panel-panel-314-315-2, 2, 1.
** Constraint: Equation-panel-panel-315-2482-2
*Equation
2
equation-set-panel-panel-315-2482-1, 2, -1.
equation-set-panel-panel-315-2482-2, 2, 1.
** Constraint: Equation-panel-panel-2232-2248-2
*Equation
2
equation-set-panel-panel-2232-2248-1, 2, -1.
equation-set-panel-panel-2232-2248-2, 2, 1.
** Constraint: Equation-panel-panel-2248-2261-2
*Equation
2
equation-set-panel-panel-2248-2261-1, 2, -1.
equation-set-panel-panel-2248-2261-2, 2, 1.
** Constraint: Equation-panel-panel-2261-2262-2
*Equation
2
equation-set-panel-panel-2261-2262-1, 2, -1.
equation-set-panel-panel-2261-2262-2, 2, 1.
** Constraint: Equation-panel-panel-2262-2263-2
*Equation
2
equation-set-panel-panel-2262-2263-1, 2, -1.
equation-set-panel-panel-2262-2263-2, 2, 1.
** Constraint: Equation-panel-panel-2263-2264-2
*Equation
2
equation-set-panel-panel-2263-2264-1, 2, -1.
equation-set-panel-panel-2263-2264-2, 2, 1.
** Constraint: Equation-panel-panel-2264-2265-2
*Equation
2
equation-set-panel-panel-2264-2265-1, 2, -1.
equation-set-panel-panel-2264-2265-2, 2, 1.
** Constraint: Equation-panel-panel-2306-2307-2
*Equation
2
equation-set-panel-panel-2306-2307-1, 2, -1.
equation-set-panel-panel-2306-2307-2, 2, 1.
** Constraint: Equation-panel-panel-2307-2320-2
*Equation
2
equation-set-panel-panel-2307-2320-1, 2, -1.
equation-set-panel-panel-2307-2320-2, 2, 1.
** Constraint: Equation-panel-panel-2320-2321-2
*Equation
2
equation-set-panel-panel-2320-2321-1, 2, -1.
equation-set-panel-panel-2320-2321-2, 2, 1.
** Constraint: Equation-panel-panel-2321-2322-2
*Equation
2
equation-set-panel-panel-2321-2322-1, 2, -1.
equation-set-panel-panel-2321-2322-2, 2, 1.
** Constraint: Equation-panel-panel-2322-2323-2
*Equation
2
equation-set-panel-panel-2322-2323-1, 2, -1.
equation-set-panel-panel-2322-2323-2, 2, 1.
** Constraint: Equation-panel-panel-2323-2324-2
*Equation
2
equation-set-panel-panel-2323-2324-1, 2, -1.
equation-set-panel-panel-2323-2324-2, 2, 1.
** Constraint: Equation-panel-panel-2408-2423-2
*Equation
2
equation-set-panel-panel-2408-2423-1, 2, -1.
equation-set-panel-panel-2408-2423-2, 2, 1.
** Constraint: Equation-panel-panel-2423-2436-2
*Equation
2
equation-set-panel-panel-2423-2436-1, 2, -1.
equation-set-panel-panel-2423-2436-2, 2, 1.
** Constraint: Equation-panel-panel-2436-2437-2
*Equation
2
equation-set-panel-panel-2436-2437-1, 2, -1.
equation-set-panel-panel-2436-2437-2, 2, 1.
** Constraint: Equation-panel-panel-2437-2438-2
*Equation
2
equation-set-panel-panel-2437-2438-1, 2, -1.
equation-set-panel-panel-2437-2438-2, 2, 1.
** Constraint: Equation-panel-panel-2438-2439-2
*Equation
2
equation-set-panel-panel-2438-2439-1, 2, -1.
equation-set-panel-panel-2438-2439-2, 2, 1.
** Constraint: Equation-panel-panel-2439-2440-2
*Equation
2
equation-set-panel-panel-2439-2440-1, 2, -1.
equation-set-panel-panel-2439-2440-2, 2, 1.
** Constraint: Equation-panel-panel-2482-2483-2
*Equation
2
equation-set-panel-panel-2482-2483-1, 2, -1.
equation-set-panel-panel-2482-2483-2, 2, 1.
** Constraint: Equation-panel-panel-2483-2496-2
*Equation
2
equation-set-panel-panel-2483-2496-1, 2, -1.
equation-set-panel-panel-2483-2496-2, 2, 1.
** Constraint: Equation-panel-panel-2496-2497-2
*Equation
2
equation-set-panel-panel-2496-2497-1, 2, -1.
equation-set-panel-panel-2496-2497-2, 2, 1.
** Constraint: Equation-panel-panel-2497-2498-2
*Equation
2
equation-set-panel-panel-2497-2498-1, 2, -1.
equation-set-panel-panel-2497-2498-2, 2, 1.
** Constraint: Equation-panel-panel-2498-2499-2
*Equation
2
equation-set-panel-panel-2498-2499-1, 2, -1.
equation-set-panel-panel-2498-2499-2, 2, 1.
** Constraint: Equation-panel-panel-2499-2500-2
*Equation
2
equation-set-panel-panel-2499-2500-1, 2, -1.
equation-set-panel-panel-2499-2500-2, 2, 1.
*End Assembly
** 
** MATERIALS
** 
*Material, name=steel
*Density
7850., 296.15
*Elastic
 2e+11, 0.3
*Plastic
    3.55e+08,    0.
    3.55e+08, 0.006
 3.56713e+08, 0.016
 3.60895e+08, 0.026
 3.68869e+08, 0.046
  3.7638e+08, 0.066
 3.83488e+08, 0.086
** 
** BOUNDARY CONDITIONS
** 
** Name: Edge-BC Type: Displacement/Rotation
*Boundary
plate-edge, 3, 3
** Name: Fixed-BC Type: Displacement/Rotation
*Boundary
Fixed-BC, 1, 1
** Name: Middle-BC Type: Displacement/Rotation
*Boundary
middle-bc, 2, 2
** ----------------------------------------------------------------
** 
** STEP: Buckle-Step
** 
*Step, name=Buckle-Step, nlgeom=NO, perturbation
*Buckle
5, , 10, 500
** 
** BOUNDARY CONDITIONS
** 
** Name: Edge-BC Type: Displacement/Rotation
*Boundary, op=NEW, load case=1
plate-edge, 3, 3
*Boundary, op=NEW, load case=2
plate-edge, 3, 3
** Name: Fixed-BC Type: Displacement/Rotation
*Boundary, op=NEW, load case=1
Fixed-BC, 1, 1
*Boundary, op=NEW, load case=2
Fixed-BC, 1, 1
** Name: Middle-BC Type: Displacement/Rotation
*Boundary, op=NEW, load case=1
middle-bc, 2, 2
*Boundary, op=NEW, load case=2
middle-bc, 2, 2
** 
** LOADS
** 
** Name: Load   Type: Concentrated force
*Cload
load_set, 1, 1e+06
load_set, 2, 0.
load_set, 3, 0.
** 
** OUTPUT REQUESTS
** 
*Restart, write, frequency=0
** 
** FIELD OUTPUT: F-Output-1
** 
*Output, field, variable=PRESELECT
*End Step
