1

   Abaqus 2020                                  Date 09-Sep-2025   Time 16:09:59
   For use by UNIVERSITY OF BRITISH COLUMBIA under license from Dassault Systemes or its subsidiary.

                                                                                 
                                                                                 
 STEP    1     INCREMENT     1     STEP TIME    0.00    


                        S T E P       1     C A L C U L A T I O N   O F   E I G E N V A L U E S

                                            F O R   B U C K L I N G   P R E D I C T I O N



                                                                                          

     THE SUBSPACE ITERATION METHOD IS USED FOR THIS ANALYSIS
     NUMBER OF EIGENVALUES                      5
     MAXIMUM NUMBER OF ITERATIONS                    500
     NUMBER OF VECTORS IN ITERATION                   10
     THE BUCKLING MODE CONSTRAINTS 
      ARE DEFINED AS LOAD CASE 2
                              ONLY INITIAL STRESS EFFECTS ARE INCLUDED IN THE
                              STIFFNESS MATRIX

     THIS IS A LINEAR PERTURBATION STEP.
     ALL LOADS ARE DEFINED AS CHANGE IN LOAD TO THE REFERENCE STATE

     EXTRAPOLATION WILL NOT BE USED

     CHARACTERISTIC ELEMENT LENGTH     2.080E-02

     DETAILS REGARDING ACTUAL SOLUTION WAVEFRONT REQUESTED

     DETAILED OUTPUT OF DIAGNOSTICS TO DATABASE REQUESTED

     PRINT OF INCREMENT NUMBER, TIME, ETC., TO THE MESSAGE FILE EVERY     1  INCREMENTS

     ELEMENT OPERATIONS WILL NOT BE CARRIED OUT IN PARALLEL

  NUMBER OF EQUATIONS =    165095     NUMBER OF RHS =    1
  NUMBER OF FLOATING PT. OPERATIONS =  1.75E+10

  USING THE DIRECT SOLVER WITH   4 PROCESSORS

     CHECK POINT   START OF SOLVER    

     CHECK POINT  END OF SOLVER       

       ELAPSED USER TIME (SEC)      =  0.20000    
       ELAPSED SYSTEM TIME (SEC)    =   0.0000    
       ELAPSED TOTAL CPU TIME (SEC) =  0.20000    
       ELAPSED WALLCLOCK TIME (SEC) =          1
 
     ITERATION 1
      1       6.328883e+01     
      2       8.341473e+01     
      3       1.115705e+02     
      4       1.206953e+02     
      5       1.291919e+02     
      6       1.819994e+02     
      7       1.894908e+02     
      8       2.124014e+02     
      9       2.410928e+02     
      10      2.849362e+02     
 
     NUMBER OF EIGENVALUES CONVERGED UPTO THIS ITERATION = 0
 
     ITERATION 2
      1       2.083346e+01     
      2       2.102831e+01     
      3       2.253440e+01     
      4       2.318093e+01     
      5       2.449642e+01     
      6       2.635753e+01     
      7       3.097620e+01     
      8       3.108734e+01     
      9       3.795147e+01     
      10      4.354490e+01     
 
     NUMBER OF EIGENVALUES CONVERGED UPTO THIS ITERATION = 0
 
     ITERATION 3
      1       1.166056e+01     
      2       1.256869e+01     
      3       1.510045e+01     
      4       1.531409e+01     
      5       1.641349e+01     
      6       1.695922e+01     
      7       1.795885e+01     
      8       1.844061e+01     
      9       2.025012e+01     
      10      2.090991e+01     
 
     NUMBER OF EIGENVALUES CONVERGED UPTO THIS ITERATION = 0
 
     ITERATION 4
      1       8.536475e+00     
      2       9.181684e+00     
      3       9.955694e+00     
      4       1.104887e+01     
      5       1.213032e+01     
      6       1.296955e+01     
      7       1.331052e+01     
      8       1.440586e+01     
      9       1.736278e+01     
      10      1.809501e+01     
 
     NUMBER OF EIGENVALUES CONVERGED UPTO THIS ITERATION = 0
 
     ITERATION 5
      1       7.741057e+00     
      2       8.154816e+00     
      3       9.103075e+00     
      4       9.555924e+00     
      5       1.029806e+01     
      6       1.067226e+01     
      7       1.118973e+01     
      8       1.283358e+01     
      9       1.384811e+01     
      10      1.481744e+01     
 
     NUMBER OF EIGENVALUES CONVERGED UPTO THIS ITERATION = 0
 
     ITERATION 6
      1       7.536895e+00     
      2       7.814042e+00     
      3       8.672857e+00     
      4       8.928085e+00     
      5       9.465910e+00     
      6       9.847870e+00     
      7       1.047481e+01     
      8       1.106439e+01     
      9       1.173533e+01     
      10      1.235727e+01     
 
     NUMBER OF EIGENVALUES CONVERGED UPTO THIS ITERATION = 0
 
     ITERATION 7
      1       7.469812e+00     
      2       7.677842e+00     
      3       8.330357e+00     
      4       8.582922e+00     
      5       9.161364e+00     
      6       9.576972e+00     
      7       9.827397e+00     
      8       1.023582e+01     
      9       1.077117e+01     
      10      1.144399e+01     
 
     NUMBER OF EIGENVALUES CONVERGED UPTO THIS ITERATION = 0
 
     ITERATION 8
      1       7.442788e+00     
      2       7.610859e+00     
      3       8.108667e+00     
      4       8.401923e+00     
      5       9.058059e+00     
      6       9.392655e+00     
      7       9.446017e+00     
      8       1.002858e+01     
      9       1.043588e+01     
      10      1.089281e+01     
 
     NUMBER OF EIGENVALUES CONVERGED UPTO THIS ITERATION = 0
 
     ITERATION 9
      1       7.429514e+00     
      2       7.574572e+00     
      3       7.996324e+00     
      4       8.275170e+00     
      5       9.006715e+00     
      6       9.225450e+00     
      7       9.358676e+00     
      8       9.892458e+00     
      9       1.021881e+01     
      10      1.062717e+01     
 
     NUMBER OF EIGENVALUES CONVERGED UPTO THIS ITERATION = 0
 
     ITERATION 10
      1       7.422150e+00     
      2       7.553188e+00     
      3       7.939219e+00     
      4       8.180962e+00     
      5       8.974773e+00     
      6       9.149729e+00     
      7       9.303775e+00     
      8       9.774341e+00     
      9       1.005212e+01     
      10      1.052989e+01     
 
     NUMBER OF EIGENVALUES CONVERGED UPTO THIS ITERATION = 0
 
     ITERATION 11
      1       7.417802e+00     
      2       7.539977e+00     
      3       7.908506e+00     
      4       8.114162e+00     
      5       8.953193e+00     
      6       9.109797e+00     
      7       9.268892e+00     
      8       9.673435e+00     
      9       9.943877e+00     
      10      1.048881e+01     
 
     NUMBER OF EIGENVALUES CONVERGED UPTO THIS ITERATION = 0
 
     ITERATION 12
      1       7.415136e+00     
      2       7.531611e+00     
      3       7.890882e+00     
      4       8.068905e+00     
      5       8.938170e+00     
      6       9.085581e+00     
      7       9.247292e+00     
      8       9.595078e+00     
      9       9.869551e+00     
      10      1.046667e+01     
 
     NUMBER OF EIGENVALUES CONVERGED UPTO THIS ITERATION = 0
 
     ITERATION 13
      1       7.413453e+00     
      2       7.526222e+00     
      3       7.880154e+00     
      4       8.039063e+00     
      5       8.927504e+00     
      6       9.069530e+00     
      7       9.233972e+00     
      8       9.535208e+00     
      9       9.813098e+00     
      10      1.045229e+01     
 
     NUMBER OF EIGENVALUES CONVERGED UPTO THIS ITERATION = 0
 
     ITERATION 14
      1       7.412369e+00     
      2       7.522703e+00     
      3       7.873296e+00     
      4       8.019626e+00     
      5       8.919793e+00     
      6       9.058314e+00     
      7       9.225586e+00     
      8       9.487546e+00     
      9       9.767567e+00     
      10      1.044160e+01     
 
     NUMBER OF EIGENVALUES CONVERGED UPTO THIS ITERATION = 0
 
     ITERATION 15
      1       7.411659e+00     
      2       7.520380e+00     
      3       7.868738e+00     
      4       8.007012e+00     
      5       8.914116e+00     
      6       9.050187e+00     
      7       9.220122e+00     
      8       9.447368e+00     
      9       9.729770e+00     
      10      1.043282e+01     
 
     NUMBER OF EIGENVALUES CONVERGED UPTO THIS ITERATION = 0
 
     ITERATION 16
      1       7.411191e+00     
      2       7.518834e+00     
      3       7.865617e+00     
      4       7.998820e+00     
      5       8.909846e+00     
      6       9.044109e+00     
      7       9.216428e+00     
      8       9.411730e+00     
      9       9.697972e+00     
      10      1.042504e+01     
 
     NUMBER OF EIGENVALUES CONVERGED UPTO THIS ITERATION = 0
 
     ITERATION 17
      1       7.410881e+00     
      2       7.517800e+00     
      3       7.863430e+00     
      4       7.993489e+00     
      5       8.906556e+00     
      6       9.039425e+00     
      7       9.213844e+00     
      8       9.378954e+00     
      9       9.671046e+00     
      10      1.041778e+01     
 
     NUMBER OF EIGENVALUES CONVERGED UPTO THIS ITERATION = 0
 
     ITERATION 18
      1       7.410675e+00     
      2       7.517104e+00     
      3       7.861870e+00     
      4       7.990011e+00     
      5       8.903944e+00     
      6       9.035699e+00     
      7       9.211978e+00     
      8       9.348144e+00     
      9       9.648155e+00     
      10      1.041072e+01     
 
     NUMBER OF EIGENVALUES CONVERGED UPTO THIS ITERATION = 0
 
     ITERATION 19
      1       7.410538e+00     
      2       7.516634e+00     
      3       7.860745e+00     
      4       7.987736e+00     
      5       8.901800e+00     
      6       9.032634e+00     
      7       9.210592e+00     
      8       9.318872e+00     
      9       9.628621e+00     
      10      1.040368e+01     
 
     NUMBER OF EIGENVALUES CONVERGED UPTO THIS ITERATION = 0
 
     ITERATION 20
      1       7.410448e+00     
      2       7.516317e+00     
      3       7.859926e+00     
      4       7.986246e+00     
      5       8.899972e+00     
      6       9.030014e+00     
      7       9.209524e+00     
      8       9.290970e+00     
      9       9.611890e+00     
      10      1.039652e+01     
 
     NUMBER OF EIGENVALUES CONVERGED UPTO THIS ITERATION = 0
 
     ITERATION 21
      1       7.410388e+00     
      2       7.516103e+00     
      3       7.859326e+00     
      4       7.985268e+00     
      5       8.898351e+00     
      6       9.027682e+00     
      7       9.208649e+00     
      8       9.264429e+00     
      9       9.597498e+00     
      10      1.038913e+01     
 
     NUMBER OF EIGENVALUES CONVERGED UPTO THIS ITERATION = 0
 
     ITERATION 22
      1       7.410349e+00     
      2       7.515958e+00     
      3       7.858886e+00     
      4       7.984626e+00     
      5       8.896858e+00     
      6       9.025512e+00     
      7       9.207791e+00     
      8       9.239395e+00     
      9       9.585065e+00     
      10      1.038143e+01     
 
     NUMBER OF EIGENVALUES CONVERGED UPTO THIS ITERATION = 0
 
     ITERATION 23
      1       7.410323e+00     
      2       7.515860e+00     
      3       7.858562e+00     
      4       7.984204e+00     
      5       8.895436e+00     
      6       9.023399e+00     
      7       9.205868e+00     
      8       9.216976e+00     
      9       9.574279e+00     
      10      1.037336e+01     
 
     NUMBER OF EIGENVALUES CONVERGED UPTO THIS ITERATION = 0
 
     ITERATION 24
      1       7.410306e+00     
      2       7.515794e+00     
      3       7.858324e+00     
      4       7.983926e+00     
      5       8.894041e+00     
      6       9.021253e+00     
      7       9.191392e+00     
      8       9.208719e+00     
      9       9.564883e+00     
      10      1.036486e+01     
 
     NUMBER OF EIGENVALUES CONVERGED UPTO THIS ITERATION = 0
 
     ITERATION 25
      1       7.410295e+00     
      2       7.515750e+00     
      3       7.858149e+00     
      4       7.983743e+00     
      5       8.892640e+00     
      6       9.018988e+00     
      7       9.171267e+00     
      8       9.207792e+00     
      9       9.556669e+00     
      10      1.035586e+01     
 
     NUMBER OF EIGENVALUES CONVERGED UPTO THIS ITERATION = 0
 
     ITERATION 26
      1       7.410288e+00     
      2       7.515721e+00     
      3       7.858021e+00     
      4       7.983623e+00     
      5       8.891209e+00     
      6       9.016519e+00     
      7       9.152390e+00     
      8       9.207382e+00     
      9       9.549463e+00     
      10      1.034631e+01     
 
     NUMBER OF EIGENVALUES CONVERGED UPTO THIS ITERATION = 1
 
     ITERATION 27
      1       7.410283e+00     
      2       7.515701e+00     
      3       7.857928e+00     
      4       7.983544e+00     
      5       8.889729e+00     
      6       9.013765e+00     
      7       9.135215e+00     
      8       9.207112e+00     
      9       9.543123e+00     
      10      1.033616e+01     
 
     NUMBER OF EIGENVALUES CONVERGED UPTO THIS ITERATION = 1
 
     ITERATION 28
      1       7.410280e+00     
      2       7.515688e+00     
      3       7.857860e+00     
      4       7.983492e+00     
      5       8.888188e+00     
      6       9.010652e+00     
      7       9.119879e+00     
      8       9.206913e+00     
      9       9.537529e+00     
      10      1.032536e+01     
 
     NUMBER OF EIGENVALUES CONVERGED UPTO THIS ITERATION = 1
 
     ITERATION 29
      1       7.410278e+00     
      2       7.515680e+00     
      3       7.857811e+00     
      4       7.983457e+00     
      5       8.886577e+00     
      6       9.007124e+00     
      7       9.106444e+00     
      8       9.206758e+00     
      9       9.532583e+00     
      10      1.031386e+01     
 
     NUMBER OF EIGENVALUES CONVERGED UPTO THIS ITERATION = 1
 
     ITERATION 30
      1       7.410277e+00     
      2       7.515674e+00     
      3       7.857775e+00     
      4       7.983435e+00     
      5       8.884892e+00     
      6       9.003156e+00     
      7       9.094916e+00     
      8       9.206635e+00     
      9       9.528201e+00     
      10      1.030162e+01     
 
     NUMBER OF EIGENVALUES CONVERGED UPTO THIS ITERATION = 2
 
     ITERATION 31
      1       7.410276e+00     
      2       7.515670e+00     
      3       7.857750e+00     
      4       7.983420e+00     
      5       8.883134e+00     
      6       8.998781e+00     
      7       9.085230e+00     
      8       9.206536e+00     
      9       9.524311e+00     
      10      1.028858e+01     
 
     NUMBER OF EIGENVALUES CONVERGED UPTO THIS ITERATION = 2
 
     ITERATION 32
      1       7.410276e+00     
      2       7.515668e+00     
      3       7.857732e+00     
      4       7.983410e+00     
      5       8.881309e+00     
      6       8.994085e+00     
      7       9.077245e+00     
      8       9.206455e+00     
      9       9.520852e+00     
      10      1.027472e+01     
 
     NUMBER OF EIGENVALUES CONVERGED UPTO THIS ITERATION = 2
 
     ITERATION 33
      1       7.410276e+00     
      2       7.515666e+00     
      3       7.857719e+00     
      4       7.983403e+00     
      5       8.879428e+00     
      6       8.989205e+00     
      7       9.070759e+00     
      8       9.206389e+00     
      9       9.517771e+00     
      10      1.026000e+01     
 
     NUMBER OF EIGENVALUES CONVERGED UPTO THIS ITERATION = 3
 
     ITERATION 34
      1       7.410276e+00     
      2       7.515665e+00     
      3       7.857710e+00     
      4       7.983399e+00     
      5       8.877507e+00     
      6       8.984297e+00     
      7       9.065537e+00     
      8       9.206334e+00     
      9       9.515024e+00     
      10      1.024438e+01     
 
     NUMBER OF EIGENVALUES CONVERGED UPTO THIS ITERATION = 3
 
     ITERATION 35
      1       7.410275e+00     
      2       7.515665e+00     
      3       7.857703e+00     
      4       7.983396e+00     
      5       8.875564e+00     
      6       8.979508e+00     
      7       9.061345e+00     
      8       9.206289e+00     
      9       9.512571e+00     
      10      1.022785e+01     
 
     NUMBER OF EIGENVALUES CONVERGED UPTO THIS ITERATION = 4
 
     ITERATION 36
      1       7.410275e+00     
      2       7.515664e+00     
      3       7.857699e+00     
      4       7.983394e+00     
      5       8.873622e+00     
      6       8.974956e+00     
      7       9.057971e+00     
      8       9.206252e+00     
      9       9.510379e+00     
      10      1.021039e+01     
 
     NUMBER OF EIGENVALUES CONVERGED UPTO THIS ITERATION = 4
 
     ITERATION 37
      1       7.410275e+00     
      2       7.515664e+00     
      3       7.857696e+00     
      4       7.983393e+00     
      5       8.871705e+00     
      6       8.970720e+00     
      7       9.055239e+00     
      8       9.206221e+00     
      9       9.508417e+00     
      10      1.019200e+01     
 
     NUMBER OF EIGENVALUES CONVERGED UPTO THIS ITERATION = 4
 
     ITERATION 38
      1       7.410275e+00     
      2       7.515664e+00     
      3       7.857693e+00     
      4       7.983392e+00     
      5       8.869835e+00     
      6       8.966844e+00     
      7       9.053008e+00     
      8       9.206195e+00     
      9       9.506660e+00     
      10      1.017269e+01     
 
     NUMBER OF EIGENVALUES CONVERGED UPTO THIS ITERATION = 4
 
     ITERATION 39
      1       7.410275e+00     
      2       7.515664e+00     
      3       7.857692e+00     
      4       7.983392e+00     
      5       8.868033e+00     
      6       8.963342e+00     
      7       9.051170e+00     
      8       9.206173e+00     
      9       9.505085e+00     
      10      1.015249e+01     
 
     NUMBER OF EIGENVALUES CONVERGED UPTO THIS ITERATION = 4
 
     ITERATION 40
      1       7.410275e+00     
      2       7.515664e+00     
      3       7.857691e+00     
      4       7.983391e+00     
      5       8.866318e+00     
      6       8.960211e+00     
      7       9.049641e+00     
      8       9.206155e+00     
      9       9.503671e+00     
      10      1.013143e+01     
 
     NUMBER OF EIGENVALUES CONVERGED UPTO THIS ITERATION = 4
 
     ITERATION 41
      1       7.410275e+00     
      2       7.515664e+00     
      3       7.857690e+00     
      4       7.983391e+00     
      5       8.864703e+00     
      6       8.957431e+00     
      7       9.048358e+00     
      8       9.206140e+00     
      9       9.502402e+00     
      10      1.010958e+01     
 
     NUMBER OF EIGENVALUES CONVERGED UPTO THIS ITERATION = 4
 
     ITERATION 42
      1       7.410275e+00     
      2       7.515664e+00     
      3       7.857689e+00     
      4       7.983391e+00     
      5       8.863199e+00     
      6       8.954976e+00     
      7       9.047272e+00     
      8       9.206127e+00     
      9       9.501261e+00     
      10      1.008699e+01     
 
     NUMBER OF EIGENVALUES CONVERGED UPTO THIS ITERATION = 4
 
     ITERATION 43
      1       7.410275e+00     
      2       7.515664e+00     
      3       7.857689e+00     
      4       7.983391e+00     
      5       8.861812e+00     
      6       8.952817e+00     
      7       9.046346e+00     
      8       9.206117e+00     
      9       9.500235e+00     
      10      1.006377e+01     
 
     NUMBER OF EIGENVALUES CONVERGED UPTO THIS ITERATION = 4
 
     ITERATION 44
      1       7.410275e+00     
      2       7.515664e+00     
      3       7.857689e+00     
      4       7.983391e+00     
      5       8.860544e+00     
      6       8.950924e+00     
      7       9.045551e+00     
      8       9.206108e+00     
      9       9.499311e+00     
      10      1.004003e+01     
 
     NUMBER OF EIGENVALUES CONVERGED UPTO THIS ITERATION = 4
 
     ITERATION 45
      1       7.410275e+00     
      2       7.515664e+00     
      3       7.857689e+00     
      4       7.983391e+00     
      5       8.859397e+00     
      6       8.949269e+00     
      7       9.044866e+00     
      8       9.206100e+00     
      9       9.498479e+00     
      10      1.001587e+01     
 
     NUMBER OF EIGENVALUES CONVERGED UPTO THIS ITERATION = 4
 
     ITERATION 46
      1       7.410275e+00     
      2       7.515664e+00     
      3       7.857689e+00     
      4       7.983391e+00     
      5       8.858366e+00     
      6       8.947824e+00     
      7       9.044272e+00     
      8       9.206094e+00     
      9       9.497729e+00     
      10      9.991433e+00     
 
     NUMBER OF EIGENVALUES CONVERGED UPTO THIS ITERATION = 4
 
     ITERATION 47
      1       7.410275e+00     
      2       7.515664e+00     
      3       7.857689e+00     
      4       7.983391e+00     
      5       8.857446e+00     
      6       8.946565e+00     
      7       9.043754e+00     
      8       9.206089e+00     
      9       9.497052e+00     
      10      9.966862e+00     
 
     NUMBER OF EIGENVALUES CONVERGED UPTO THIS ITERATION = 4
 
     ITERATION 48
      1       7.410275e+00     
      2       7.515664e+00     
      3       7.857689e+00     
      4       7.983391e+00     
      5       8.856632e+00     
      6       8.945469e+00     
      7       9.043303e+00     
      8       9.206084e+00     
      9       9.496440e+00     
      10      9.942302e+00     
 
     NUMBER OF EIGENVALUES CONVERGED UPTO THIS ITERATION = 4
 
     ITERATION 49
      1       7.410275e+00     
      2       7.515664e+00     
      3       7.857689e+00     
      4       7.983391e+00     
      5       8.855916e+00     
      6       8.944518e+00     
      7       9.042907e+00     
      8       9.206080e+00     
      9       9.495887e+00     
      10      9.917902e+00     
 
     NUMBER OF EIGENVALUES CONVERGED UPTO THIS ITERATION = 4
 
     ITERATION 50
      1       7.410275e+00     
      2       7.515664e+00     
      3       7.857688e+00     
      4       7.983391e+00     
      5       8.855290e+00     
      6       8.943693e+00     
      7       9.042561e+00     
      8       9.206077e+00     
      9       9.495386e+00     
      10      9.893808e+00     
 
     NUMBER OF EIGENVALUES CONVERGED UPTO THIS ITERATION = 4
 
     ITERATION 51
      1       7.410275e+00     
      2       7.515664e+00     
      3       7.857688e+00     
      4       7.983391e+00     
      5       8.854746e+00     
      6       8.942980e+00     
      7       9.042257e+00     
      8       9.206074e+00     
      9       9.494932e+00     
      10      9.870161e+00     
 
     NUMBER OF EIGENVALUES CONVERGED UPTO THIS ITERATION = 4
 
     ITERATION 52
      1       7.410275e+00     
      2       7.515664e+00     
      3       7.857688e+00     
      4       7.983391e+00     
      5       8.854277e+00     
      6       8.942363e+00     
      7       9.041991e+00     
      8       9.206072e+00     
      9       9.494519e+00     
      10      9.847091e+00     
 
     NUMBER OF EIGENVALUES CONVERGED UPTO THIS ITERATION = 4
 
     ITERATION 53
      1       7.410275e+00     
      2       7.515664e+00     
      3       7.857688e+00     
      4       7.983391e+00     
      5       8.853874e+00     
      6       8.941833e+00     
      7       9.041757e+00     
      8       9.206070e+00     
      9       9.494144e+00     
      10      9.824716e+00     
 
     NUMBER OF EIGENVALUES CONVERGED UPTO THIS ITERATION = 4
 
     ITERATION 54
      1       7.410275e+00     
      2       7.515664e+00     
      3       7.857688e+00     
      4       7.983391e+00     
      5       8.853530e+00     
      6       8.941377e+00     
      7       9.041552e+00     
      8       9.206068e+00     
      9       9.493801e+00     
      10      9.803138e+00     
 
     NUMBER OF EIGENVALUES CONVERGED UPTO THIS ITERATION = 4
 
     ITERATION 55
      1       7.410275e+00     
      2       7.515664e+00     
      3       7.857688e+00     
      4       7.983391e+00     
      5       8.853238e+00     
      6       8.940986e+00     
      7       9.041373e+00     
      8       9.206067e+00     
      9       9.493488e+00     
      10      9.782442e+00     
 
     NUMBER OF EIGENVALUES CONVERGED UPTO THIS ITERATION = 4
 
     ITERATION 56
      1       7.410275e+00     
      2       7.515664e+00     
      3       7.857688e+00     
      4       7.983391e+00     
      5       8.852991e+00     
      6       8.940653e+00     
      7       9.041217e+00     
      8       9.206066e+00     
      9       9.493202e+00     
      10      9.762697e+00     
 
     NUMBER OF EIGENVALUES CONVERGED UPTO THIS ITERATION = 4
 
     ITERATION 57
      1       7.410275e+00     
      2       7.515664e+00     
      3       7.857688e+00     
      4       7.983391e+00     
      5       8.852783e+00     
      6       8.940369e+00     
      7       9.041080e+00     
      8       9.206065e+00     
      9       9.492938e+00     
      10      9.743953e+00     
 
     NUMBER OF EIGENVALUES CONVERGED UPTO THIS ITERATION = 4
 
     ITERATION 58
      1       7.410275e+00     
      2       7.515664e+00     
      3       7.857688e+00     
      4       7.983391e+00     
      5       8.852609e+00     
      6       8.940127e+00     
      7       9.040962e+00     
      8       9.206064e+00     
      9       9.492695e+00     
      10      9.726242e+00     
 
     NUMBER OF EIGENVALUES CONVERGED UPTO THIS ITERATION = 4
 
     ITERATION 59
      1       7.410275e+00     
      2       7.515664e+00     
      3       7.857688e+00     
      4       7.983391e+00     
      5       8.852465e+00     
      6       8.939924e+00     
      7       9.040859e+00     
      8       9.206063e+00     
      9       9.492469e+00     
      10      9.709582e+00     
 
     NUMBER OF EIGENVALUES CONVERGED UPTO THIS ITERATION = 4
 
     ITERATION 60
      1       7.410275e+00     
      2       7.515664e+00     
      3       7.857688e+00     
      4       7.983391e+00     
      5       8.852345e+00     
      6       8.939752e+00     
      7       9.040770e+00     
      8       9.206062e+00     
      9       9.492260e+00     
      10      9.693973e+00     
 
     NUMBER OF EIGENVALUES CONVERGED UPTO THIS ITERATION = 4
 
     ITERATION 61
      1       7.410275e+00     
      2       7.515664e+00     
      3       7.857688e+00     
      4       7.983391e+00     
      5       8.852246e+00     
      6       8.939607e+00     
      7       9.040693e+00     
      8       9.206062e+00     
      9       9.492064e+00     
      10      9.679405e+00     
 
     NUMBER OF EIGENVALUES CONVERGED UPTO THIS ITERATION = 4
 
     ITERATION 62
      1       7.410275e+00     
      2       7.515664e+00     
      3       7.857688e+00     
      4       7.983391e+00     
      5       8.852165e+00     
      6       8.939486e+00     
      7       9.040627e+00     
      8       9.206061e+00     
      9       9.491881e+00     
      10      9.665857e+00     
 
     NUMBER OF EIGENVALUES CONVERGED UPTO THIS ITERATION = 4
 
     ITERATION 63
      1       7.410275e+00     
      2       7.515664e+00     
      3       7.857688e+00     
      4       7.983391e+00     
      5       8.852098e+00     
      6       8.939385e+00     
      7       9.040571e+00     
      8       9.206061e+00     
      9       9.491708e+00     
      10      9.653297e+00     
 
     NUMBER OF EIGENVALUES CONVERGED UPTO THIS ITERATION = 4
 
     ITERATION 64
      1       7.410275e+00     
      2       7.515664e+00     
      3       7.857688e+00     
      4       7.983391e+00     
      5       8.852044e+00     
      6       8.939302e+00     
      7       9.040523e+00     
      8       9.206060e+00     
      9       9.491544e+00     
      10      9.641688e+00     
 
     NUMBER OF EIGENVALUES CONVERGED UPTO THIS ITERATION = 4
 
     ITERATION 65
      1       7.410275e+00     
      2       7.515664e+00     
      3       7.857688e+00     
      4       7.983391e+00     
      5       8.852000e+00     
      6       8.939232e+00     
      7       9.040482e+00     
      8       9.206060e+00     
      9       9.491389e+00     
      10      9.630986e+00     
 
     NUMBER OF EIGENVALUES CONVERGED UPTO THIS ITERATION = 4
 
     ITERATION 66
      1       7.410275e+00     
      2       7.515664e+00     
      3       7.857688e+00     
      4       7.983391e+00     
      5       8.851965e+00     
      6       8.939174e+00     
      7       9.040447e+00     
      8       9.206060e+00     
      9       9.491240e+00     
      10      9.621144e+00     
 
     NUMBER OF EIGENVALUES CONVERGED UPTO THIS ITERATION = 4
 
     ITERATION 67
      1       7.410275e+00     
      2       7.515664e+00     
      3       7.857688e+00     
      4       7.983391e+00     
      5       8.851936e+00     
      6       8.939127e+00     
      7       9.040417e+00     
      8       9.206059e+00     
      9       9.491097e+00     
      10      9.612114e+00     
 
     NUMBER OF EIGENVALUES CONVERGED UPTO THIS ITERATION = 4
 
     ITERATION 68
      1       7.410275e+00     
      2       7.515664e+00     
      3       7.857688e+00     
      4       7.983391e+00     
      5       8.851912e+00     
      6       8.939088e+00     
      7       9.040392e+00     
      8       9.206059e+00     
      9       9.490960e+00     
      10      9.603844e+00     
 
     NUMBER OF EIGENVALUES CONVERGED UPTO THIS ITERATION = 4
 
     ITERATION 69
      1       7.410275e+00     
      2       7.515664e+00     
      3       7.857688e+00     
      4       7.983391e+00     
      5       8.851894e+00     
      6       8.939056e+00     
      7       9.040371e+00     
      8       9.206059e+00     
      9       9.490827e+00     
      10      9.596284e+00     
 
     NUMBER OF EIGENVALUES CONVERGED UPTO THIS ITERATION = 4
 
     ITERATION 70
      1       7.410275e+00     
      2       7.515664e+00     
      3       7.857688e+00     
      4       7.983391e+00     
      5       8.851879e+00     
      6       8.939030e+00     
      7       9.040354e+00     
      8       9.206059e+00     
      9       9.490698e+00     
      10      9.589384e+00     
 
     NUMBER OF EIGENVALUES CONVERGED UPTO THIS ITERATION = 4
 
     ITERATION 71
      1       7.410275e+00     
      2       7.515664e+00     
      3       7.857688e+00     
      4       7.983391e+00     
      5       8.851867e+00     
      6       8.939008e+00     
      7       9.040339e+00     
      8       9.206058e+00     
      9       9.490573e+00     
      10      9.583095e+00     
 
     NUMBER OF EIGENVALUES CONVERGED UPTO THIS ITERATION = 4
 
     ITERATION 72
      1       7.410275e+00     
      2       7.515664e+00     
      3       7.857688e+00     
      4       7.983391e+00     
      5       8.851857e+00     
      6       8.938991e+00     
      7       9.040327e+00     
      8       9.206058e+00     
      9       9.490451e+00     
      10      9.577371e+00     
 
     NUMBER OF EIGENVALUES CONVERGED UPTO THIS ITERATION = 4
 
     ITERATION 73
      1       7.410275e+00     
      2       7.515664e+00     
      3       7.857688e+00     
      4       7.983391e+00     
      5       8.851850e+00     
      6       8.938977e+00     
      7       9.040316e+00     
      8       9.206058e+00     
      9       9.490332e+00     
      10      9.572167e+00     
 
     NUMBER OF EIGENVALUES CONVERGED UPTO THIS ITERATION = 5


          THE ANALYSIS HAS BEEN COMPLETED



     ANALYSIS SUMMARY:
     TOTAL OF          1  INCREMENTS
                       0  CUTBACKS IN AUTOMATIC INCREMENTATION
                       1  ITERATIONS INCLUDING CONTACT ITERATIONS IF PRESENT
                       1  PASSES THROUGH THE EQUATION SOLVER OF WHICH 
                       1  INVOLVE MATRIX DECOMPOSITION, INCLUDING
                       0  DECOMPOSITION(S) OF THE MASS MATRIX
                       1  REORDERING OF EQUATIONS TO MINIMIZE WAVEFRONT
                       0  ADDITIONAL RESIDUAL EVALUATIONS FOR LINE SEARCHES
                       0  ADDITIONAL OPERATOR EVALUATIONS FOR LINE SEARCHES
                       1  WARNING MESSAGES DURING USER INPUT PROCESSING
                       0  WARNING MESSAGES DURING ANALYSIS
                       0  ANALYSIS WARNINGS ARE NUMERICAL PROBLEM MESSAGES
                       0  ANALYSIS WARNINGS ARE NEGATIVE EIGENVALUE MESSAGES
                       0  ERROR MESSAGES



     JOB TIME SUMMARY
       USER TIME (SEC)      =   26.300    
       SYSTEM TIME (SEC)    =   2.8000    
       TOTAL CPU TIME (SEC) =   29.100    
       WALLCLOCK TIME (SEC) =         51
