*Heading
** Job name: parametric-panel Model name: eigen
** Generated by: Abaqus/CAE 2020
*Preprint, echo=NO, model=NO, history=NO, contact=NO
**
** PARTS
**
*Part, name=panel
*Node
      1,  0.899999976,           0.,           3.
      2,  0.899999976,           0.,           0.
      3,          1.5,           0.,           0.
      4,          1.5,           0.,           3.
      5,  0.300000012,           0.,           3.
      6,  0.300000012,           0.,           0.
      7, -0.899999976,           0.,           0.
      8, -0.899999976,           0.,           3.
      9,         -1.5,           0.,           3.
     10,         -1.5,           0.,           0.
     11, -0.300000012,           0.,           3.
     12, -0.300000012,           0.,           0.
     13, -0.899999976,        0.125,           3.
     14, -0.899999976,        0.125,           0.
     15, -0.949999988,        0.125,           3.
     16, -0.949999988,        0.125,           0.
     17, -0.850000024,        0.125,           0.
     18, -0.850000024,        0.125,           3.
     19,  0.300000012,        0.125,           3.
     20,  0.300000012,        0.125,           0.
** ... 28217 like lines cut
*Element, type=S4R
   1,    1,   37, 3057,  392
   2,   37,   38, 3058, 3057
   3,   38,   39, 3059, 3058
   4,   39,   40, 3060, 3059
   5,   40,   41, 3061, 3060
   6,   41,   42, 3062, 3061
   7,   42,   43, 3063, 3062
   8,   43,   44, 3064, 3063
   9,   44,   45, 3065, 3064
  10,   45,   46, 3066, 3065
  11,   46,   47, 3067, 3066
  12,   47,   48, 3068, 3067
  13,   48,   49, 3069, 3068
  14,   49,   50, 3070, 3069
  15,   50,   51, 3071, 3070
  16,   51,   52, 3072, 3071
  17,   52,   53, 3073, 3072
  18,   53,   54, 3074, 3073
  19,   54,   55, 3075, 3074
  20,   55,   56, 3076, 3075
** ... 27880 like lines cut
*Nset, nset=PlateFace
     1,     2,     3,     4,     5,     6,     7,     8,     9,    10,    11,    12,    37,    38,    39,    40
    41,    42,    43,    44,    45,    46,    47,    48,    49,    50,    51,    52,    53,    54,    55,    56
    57,    58,    59,    60,    61,    62,    63,    64,    65,    66,    67,    68,    69,    70,    71,    72
    73,    74,    75,    76,    77,    78,    79,    80,    81,    82,    83,    84,    85,    86,    87,    88
    89,    90,    91,    92,    93,    94,    95,    96,    97,    98,    99,   100,   101,   102,   103,   104
   105,   106,   107,   108,   109,   110,   111,   112,   113,   114,   115,   116,   117,   118,   119,   120
   121,   122,   123,   124,   125,   126,   127,   128,   129,   130,   131,   132,   133,   134,   135,   136
   137,   138,   139,   140,   141,   142,   143,   144,   145,   146,   147,   148,   149,   150,   151,   152
   153,   154,   155,   156,   157,   158,   159,   160,   161,   162,   163,   164,   165,   166,   167,   168
   169,   170,   171,   172,   173,   174,   175,   176,   177,   178,   179,   180,   181,   182,   183,   184
   185,   186,   187,   188,   189,   190,   191,   192,   193,   194,   195,   196,   197,   198,   199,   200
   201,   202,   203,   204,   205,   206,   207,   208,   209,   210,   211,   212,   213,   214,   215,   216
   217,   218,   219,   220,   221,   222,   223,   224,   225,   226,   227,   228,   229,   230,   231,   232
   233,   234,   235,   236,   237,   238,   239,   240,   241,   242,   243,   244,   245,   246,   247,   248
   249,   250,   251,   252,   253,   254,   255,   256,   257,   258,   259,   260,   261,   262,   263,   264
   265,   266,   267,   268,   269,   270,   271,   272,   273,   274,   275,   276,   277,   278,   279,   280
   281,   282,   283,   284,   285,   286,   287,   288,   289,   290,   291,   292,   293,   294,   295,   296
   297,   298,   299,   300,   301,   302,   303,   304,   305,   306,   307,   308,   309,   310,   311,   312
   313,   314,   315,   316,   317,   318,   319,   320,   321,   322,   323,   324,   325,   326,   327,   328
   329,   330,   331,   332,   333,   334,   335,   336,   337,   338,   339,   340,   341,   342,   343,   344
** ... 1406 like lines cut
*Elset, elset=PlateFace, generate
     1,  22500,      1
*Nset, nset=FlangeFaces
    13,    14,    15,    16,    17,    18,    19,    20,    21,    22,    23,    24,    25,    26,    27,    28
    29,    30,    31,    32,    33,    34,    35,    36,  1229,  1230,  1231,  1232,  1233,  1234,  1235,  1236
  1237,  1238,  1239,  1240,  1241,  1242,  1243,  1244,  1245,  1246,  1247,  1248,  1249,  1250,  1251,  1252
  1253,  1254,  1255,  1256,  1257,  1258,  1259,  1260,  1261,  1262,  1263,  1264,  1265,  1266,  1267,  1268
  1269,  1270,  1271,  1272,  1273,  1274,  1275,  1276,  1277,  1278,  1279,  1280,  1281,  1282,  1283,  1284
  1285,  1286,  1287,  1288,  1289,  1290,  1291,  1292,  1293,  1294,  1295,  1296,  1297,  1298,  1299,  1300
  1301,  1302,  1303,  1304,  1305,  1306,  1307,  1308,  1309,  1310,  1311,  1312,  1313,  1314,  1315,  1316
  1317,  1318,  1319,  1320,  1321,  1322,  1323,  1324,  1325,  1326,  1327,  1328,  1329,  1330,  1331,  1332
  1333,  1334,  1335,  1336,  1337,  1338,  1339,  1340,  1341,  1342,  1343,  1344,  1345,  1346,  1347,  1348
  1349,  1350,  1351,  1352,  1353,  1354,  1355,  1356,  1357,  1358,  1359,  1360,  1361,  1362,  1363,  1364
  1365,  1366,  1367,  1368,  1369,  1370,  1371,  1372,  1373,  1374,  1375,  1376,  1377,  1378,  1379,  1380
  1381,  1382,  1383,  1384,  1385,  1386,  1387,  1388,  1389,  1390,  1391,  1392,  1393,  1394,  1395,  1396
  1397,  1398,  1399,  1400,  1401,  1402,  1403,  1404,  1405,  1406,  1407,  1408,  1409,  1410,  1411,  1412
  1413,  1414,  1415,  1416,  1417,  1418,  1419,  1420,  1421,  1422,  1423,  1424,  1425,  1426,  1427,  1428
  1429,  1430,  1431,  1432,  1433,  1434,  1435,  1436,  1437,  1438,  1439,  1440,  1441,  1442,  1443,  1444
  1445,  1446,  1447,  1448,  1449,  1450,  1451,  1452,  1453,  1454,  1455,  1456,  1457,  1458,  1459,  1460
  1461,  1462,  1463,  1464,  1465,  1466,  1467,  1468,  1469,  1470,  1471,  1472,  1473,  1474,  1475,  1476
  1477,  1478,  1479,  1480,  1481,  1482,  1483,  1484,  1485,  1486,  1487,  1488,  1489,  1490,  1491,  1492
  1493,  1494,  1495,  1496,  1497,  1498,  1499,  1500,  1501,  1502,  1503,  1504,  1505,  1506,  1507,  1508
  1509,  1510,  1511,  1512,  1513,  1514,  1515,  1516,  1517,  1518,  1519,  1520,  1521,  1522,  1523,  1524
** ... 169 like lines cut
*Elset, elset=FlangeFaces
 23251, 23252, 23253, 23254, 23255, 23256, 23257, 23258, 23259, 23260, 23261, 23262, 23263, 23264, 23265, 23266
 23267, 23268, 23269, 23270, 23271, 23272, 23273, 23274, 23275, 23276, 23277, 23278, 23279, 23280, 23281, 23282
 23283, 23284, 23285, 23286, 23287, 23288, 23289, 23290, 23291, 23292, 23293, 23294, 23295, 23296, 23297, 23298
 23299, 23300, 23301, 23302, 23303, 23304, 23305, 23306, 23307, 23308, 23309, 23310, 23311, 23312, 23313, 23314
 23315, 23316, 23317, 23318, 23319, 23320, 23321, 23322, 23323, 23324, 23325, 23326, 23327, 23328, 23329, 23330
 23331, 23332, 23333, 23334, 23335, 23336, 23337, 23338, 23339, 23340, 23341, 23342, 23343, 23344, 23345, 23346
 23347, 23348, 23349, 23350, 23351, 23352, 23353, 23354, 23355, 23356, 23357, 23358, 23359, 23360, 23361, 23362
 23363, 23364, 23365, 23366, 23367, 23368, 23369, 23370, 23371, 23372, 23373, 23374, 23375, 23376, 23377, 23378
 23379, 23380, 23381, 23382, 23383, 23384, 23385, 23386, 23387, 23388, 23389, 23390, 23391, 23392, 23393, 23394
 23395, 23396, 23397, 23398, 23399, 23400, 23401, 23402, 23403, 23404, 23405, 23406, 23407, 23408, 23409, 23410
 23411, 23412, 23413, 23414, 23415, 23416, 23417, 23418, 23419, 23420, 23421, 23422, 23423, 23424, 23425, 23426
 23427, 23428, 23429, 23430, 23431, 23432, 23433, 23434, 23435, 23436, 23437, 23438, 23439, 23440, 23441, 23442
 23443, 23444, 23445, 23446, 23447, 23448, 23449, 23450, 23451, 23452, 23453, 23454, 23455, 23456, 23457, 23458
 23459, 23460, 23461, 23462, 23463, 23464, 23465, 23466, 23467, 23468, 23469, 23470, 23471, 23472, 23473, 23474
 23475, 23476, 23477, 23478, 23479, 23480, 23481, 23482, 23483, 23484, 23485, 23486, 23487, 23488, 23489, 23490
 23491, 23492, 23493, 23494, 23495, 23496, 23497, 23498, 23499, 23500, 23501, 23502, 23503, 23504, 23505, 23506
 23507, 23508, 23509, 23510, 23511, 23512, 23513, 23514, 23515, 23516, 23517, 23518, 23519, 23520, 23521, 23522
 23523, 23524, 23525, 23526, 23527, 23528, 23529, 23530, 23531, 23532, 23533, 23534, 23535, 23536, 23537, 23538
 23539, 23540, 23541, 23542, 23543, 23544, 23545, 23546, 23547, 23548, 23549, 23550, 23551, 23552, 23553, 23554
 23555, 23556, 23557, 23558, 23559, 23560, 23561, 23562, 23563, 23564, 23565, 23566, 23567, 23568, 23569, 23570
** ... 130 like lines cut
*Nset, nset=WebFaces
     1,     2,     5,     6,     7,     8,    11,    12,    13,    14,    19,    20,    25,    26,    31,    32
    37,    38,    39,    40,    41,    42,    43,    44,    45,    46,    47,    48,    49,    50,    51,    52
    53,    54,    55,    56,    57,    58,    59,    60,    61,    62,    63,    64,    65,    66,    67,    68
    69,    70,    71,    72,    73,    74,    75,    76,    77,    78,    79,    80,    81,    82,    83,    84
    85,    86,    87,    88,    89,    90,    91,    92,    93,    94,    95,    96,    97,    98,    99,   100
   101,   102,   103,   104,   105,   106,   107,   108,   109,   110,   111,   112,   113,   114,   115,   116
   117,   118,   119,   120,   121,   122,   123,   124,   125,   126,   127,   128,   129,   130,   131,   132
   133,   134,   135,   136,   137,   138,   139,   140,   141,   142,   143,   144,   145,   146,   147,   148
   149,   150,   151,   152,   153,   154,   155,   156,   157,   158,   159,   160,   161,   162,   163,   164
   165,   166,   167,   168,   169,   170,   171,   172,   173,   174,   175,   176,   177,   178,   179,   180
   181,   182,   183,   184,   185,   422,   423,   424,   425,   426,   427,   428,   429,   430,   431,   432
   433,   434,   435,   436,   437,   438,   439,   440,   441,   442,   443,   444,   445,   446,   447,   448
   449,   450,   451,   452,   453,   454,   455,   456,   457,   458,   459,   460,   461,   462,   463,   464
   465,   466,   467,   468,   469,   470,   471,   472,   473,   474,   475,   476,   477,   478,   479,   480
   481,   482,   483,   484,   485,   486,   487,   488,   489,   490,   491,   492,   493,   494,   495,   496
   497,   498,   499,   500,   501,   502,   503,   504,   505,   506,   507,   508,   509,   510,   511,   512
   513,   514,   515,   516,   517,   518,   519,   520,   521,   522,   523,   524,   525,   526,   527,   528
   529,   530,   531,   532,   533,   534,   535,   536,   537,   538,   539,   540,   541,   542,   543,   544
   545,   546,   547,   548,   549,   550,   551,   552,   553,   554,   555,   556,   557,   558,   559,   560
   561,   562,   563,   564,   565,   566,   567,   568,   569,   570,   600,   601,   602,   603,   604,   605
** ... 207 like lines cut
*Elset, elset=WebFaces
 22501, 22502, 22503, 22504, 22505, 22506, 22507, 22508, 22509, 22510, 22511, 22512, 22513, 22514, 22515, 22516
 22517, 22518, 22519, 22520, 22521, 22522, 22523, 22524, 22525, 22526, 22527, 22528, 22529, 22530, 22531, 22532
 22533, 22534, 22535, 22536, 22537, 22538, 22539, 22540, 22541, 22542, 22543, 22544, 22545, 22546, 22547, 22548
 22549, 22550, 22551, 22552, 22553, 22554, 22555, 22556, 22557, 22558, 22559, 22560, 22561, 22562, 22563, 22564
 22565, 22566, 22567, 22568, 22569, 22570, 22571, 22572, 22573, 22574, 22575, 22576, 22577, 22578, 22579, 22580
 22581, 22582, 22583, 22584, 22585, 22586, 22587, 22588, 22589, 22590, 22591, 22592, 22593, 22594, 22595, 22596
 22597, 22598, 22599, 22600, 22601, 22602, 22603, 22604, 22605, 22606, 22607, 22608, 22609, 22610, 22611, 22612
 22613, 22614, 22615, 22616, 22617, 22618, 22619, 22620, 22621, 22622, 22623, 22624, 22625, 22626, 22627, 22628
 22629, 22630, 22631, 22632, 22633, 22634, 22635, 22636, 22637, 22638, 22639, 22640, 22641, 22642, 22643, 22644
 22645, 22646, 22647, 22648, 22649, 22650, 22651, 22652, 22653, 22654, 22655, 22656, 22657, 22658, 22659, 22660
 22661, 22662, 22663, 22664, 22665, 22666, 22667, 22668, 22669, 22670, 22671, 22672, 22673, 22674, 22675, 22676
 22677, 22678, 22679, 22680, 22681, 22682, 22683, 22684, 22685, 22686, 22687, 22688, 22689, 22690, 22691, 22692
 22693, 22694, 22695, 22696, 22697, 22698, 22699, 22700, 22701, 22702, 22703, 22704, 22705, 22706, 22707, 22708
 22709, 22710, 22711, 22712, 22713, 22714, 22715, 22716, 22717, 22718, 22719, 22720, 22721, 22722, 22723, 22724
 22725, 22726, 22727, 22728, 22729, 22730, 22731, 22732, 22733, 22734, 22735, 22736, 22737, 22738, 22739, 22740
 22741, 22742, 22743, 22744, 22745, 22746, 22747, 22748, 22749, 22750, 22751, 22752, 22753, 22754, 22755, 22756
 22757, 22758, 22759, 22760, 22761, 22762, 22763, 22764, 22765, 22766, 22767, 22768, 22769, 22770, 22771, 22772
 22773, 22774, 22775, 22776, 22777, 22778, 22779, 22780, 22781, 22782, 22783, 22784, 22785, 22786, 22787, 22788
 22789, 22790, 22791, 22792, 22793, 22794, 22795, 22796, 22797, 22798, 22799, 22800, 22801, 22802, 22803, 22804
 22805, 22806, 22807, 22808, 22809, 22810, 22811, 22812, 22813, 22814, 22815, 22816, 22817, 22818, 22819, 22820
** ... 168 like lines cut
*Nset, nset=_PickedSet10_#1, internal
     1,     2,     3,     4,     5,     6,     7,     8,     9,    10,    11,    12,    37,    38,    39,    40
    41,    42,    43,    44,    45,    46,    47,    48,    49,    50,    51,    52,    53,    54,    55,    56
    57,    58,    59,    60,    61,    62,    63,    64,    65,    66,    67,    68,    69,    70,    71,    72
    73,    74,    75,    76,    77,    78,    79,    80,    81,    82,    83,    84,    85,    86,    87,    88
    89,    90,    91,    92,    93,    94,    95,    96,    97,    98,    99,   100,   101,   102,   103,   104
   105,   106,   107,   108,   109,   110,   111,   112,   113,   114,   115,   116,   117,   118,   119,   120
   121,   122,   123,   124,   125,   126,   127,   128,   129,   130,   131,   132,   133,   134,   135,   136
   137,   138,   139,   140,   141,   142,   143,   144,   145,   146,   147,   148,   149,   150,   151,   152
   153,   154,   155,   156,   157,   158,   159,   160,   161,   162,   163,   164,   165,   166,   167,   168
   169,   170,   171,   172,   173,   174,   175,   176,   177,   178,   179,   180,   181,   182,   183,   184
   185,   186,   187,   188,   189,   190,   191,   192,   193,   194,   195,   196,   197,   198,   199,   200
   201,   202,   203,   204,   205,   206,   207,   208,   209,   210,   211,   212,   213,   214,   215,   216
   217,   218,   219,   220,   221,   222,   223,   224,   225,   226,   227,   228,   229,   230,   231,   232
   233,   234,   235,   236,   237,   238,   239,   240,   241,   242,   243,   244,   245,   246,   247,   248
   249,   250,   251,   252,   253,   254,   255,   256,   257,   258,   259,   260,   261,   262,   263,   264
   265,   266,   267,   268,   269,   270,   271,   272,   273,   274,   275,   276,   277,   278,   279,   280
   281,   282,   283,   284,   285,   286,   287,   288,   289,   290,   291,   292,   293,   294,   295,   296
   297,   298,   299,   300,   301,   302,   303,   304,   305,   306,   307,   308,   309,   310,   311,   312
   313,   314,   315,   316,   317,   318,   319,   320,   321,   322,   323,   324,   325,   326,   327,   328
   329,   330,   331,   332,   333,   334,   335,   336,   337,   338,   339,   340,   341,   342,   343,   344
** ... 1406 like lines cut
*Elset, elset=_PickedSet10_#1, internal, generate
     1,  22500,      1
*Nset, nset=_PickedSet11_#1, internal
     1,     2,     5,     6,     7,     8,    11,    12,    13,    14,    19,    20,    25,    26,    31,    32
    37,    38,    39,    40,    41,    42,    43,    44,    45,    46,    47,    48,    49,    50,    51,    52
    53,    54,    55,    56,    57,    58,    59,    60,    61,    62,    63,    64,    65,    66,    67,    68
    69,    70,    71,    72,    73,    74,    75,    76,    77,    78,    79,    80,    81,    82,    83,    84
    85,    86,    87,    88,    89,    90,    91,    92,    93,    94,    95,    96,    97,    98,    99,   100
   101,   102,   103,   104,   105,   106,   107,   108,   109,   110,   111,   112,   113,   114,   115,   116
   117,   118,   119,   120,   121,   122,   123,   124,   125,   126,   127,   128,   129,   130,   131,   132
   133,   134,   135,   136,   137,   138,   139,   140,   141,   142,   143,   144,   145,   146,   147,   148
   149,   150,   151,   152,   153,   154,   155,   156,   157,   158,   159,   160,   161,   162,   163,   164
   165,   166,   167,   168,   169,   170,   171,   172,   173,   174,   175,   176,   177,   178,   179,   180
   181,   182,   183,   184,   185,   422,   423,   424,   425,   426,   427,   428,   429,   430,   431,   432
   433,   434,   435,   436,   437,   438,   439,   440,   441,   442,   443,   444,   445,   446,   447,   448
   449,   450,   451,   452,   453,   454,   455,   456,   457,   458,   459,   460,   461,   462,   463,   464
   465,   466,   467,   468,   469,   470,   471,   472,   473,   474,   475,   476,   477,   478,   479,   480
   481,   482,   483,   484,   485,   486,   487,   488,   489,   490,   491,   492,   493,   494,   495,   496
   497,   498,   499,   500,   501,   502,   503,   504,   505,   506,   507,   508,   509,   510,   511,   512
   513,   514,   515,   516,   517,   518,   519,   520,   521,   522,   523,   524,   525,   526,   527,   528
   529,   530,   531,   532,   533,   534,   535,   536,   537,   538,   539,   540,   541,   542,   543,   544
   545,   546,   547,   548,   549,   550,   551,   552,   553,   554,   555,   556,   557,   558,   559,   560
   561,   562,   563,   564,   565,   566,   567,   568,   569,   570,   600,   601,   602,   603,   604,   605
** ... 207 like lines cut
*Elset, elset=_PickedSet11_#1, internal
 22501, 22502, 22503, 22504, 22505, 22506, 22507, 22508, 22509, 22510, 22511, 22512, 22513, 22514, 22515, 22516
 22517, 22518, 22519, 22520, 22521, 22522, 22523, 22524, 22525, 22526, 22527, 22528, 22529, 22530, 22531, 22532
 22533, 22534, 22535, 22536, 22537, 22538, 22539, 22540, 22541, 22542, 22543, 22544, 22545, 22546, 22547, 22548
 22549, 22550, 22551, 22552, 22553, 22554, 22555, 22556, 22557, 22558, 22559, 22560, 22561, 22562, 22563, 22564
 22565, 22566, 22567, 22568, 22569, 22570, 22571, 22572, 22573, 22574, 22575, 22576, 22577, 22578, 22579, 22580
 22581, 22582, 22583, 22584, 22585, 22586, 22587, 22588, 22589, 22590, 22591, 22592, 22593, 22594, 22595, 22596
 22597, 22598, 22599, 22600, 22601, 22602, 22603, 22604, 22605, 22606, 22607, 22608, 22609, 22610, 22611, 22612
 22613, 22614, 22615, 22616, 22617, 22618, 22619, 22620, 22621, 22622, 22623, 22624, 22625, 22626, 22627, 22628
 22629, 22630, 22631, 22632, 22633, 22634, 22635, 22636, 22637, 22638, 22639, 22640, 22641, 22642, 22643, 22644
 22645, 22646, 22647, 22648, 22649, 22650, 22651, 22652, 22653, 22654, 22655, 22656, 22657, 22658, 22659, 22660
 22661, 22662, 22663, 22664, 22665, 22666, 22667, 22668, 22669, 22670, 22671, 22672, 22673, 22674, 22675, 22676
 22677, 22678, 22679, 22680, 22681, 22682, 22683, 22684, 22685, 22686, 22687, 22688, 22689, 22690, 22691, 22692
 22693, 22694, 22695, 22696, 22697, 22698, 22699, 22700, 22701, 22702, 22703, 22704, 22705, 22706, 22707, 22708
 22709, 22710, 22711, 22712, 22713, 22714, 22715, 22716, 22717, 22718, 22719, 22720, 22721, 22722, 22723, 22724
 22725, 22726, 22727, 22728, 22729, 22730, 22731, 22732, 22733, 22734, 22735, 22736, 22737, 22738, 22739, 22740
 22741, 22742, 22743, 22744, 22745, 22746, 22747, 22748, 22749, 22750, 22751, 22752, 22753, 22754, 22755, 22756
 22757, 22758, 22759, 22760, 22761, 22762, 22763, 22764, 22765, 22766, 22767, 22768, 22769, 22770, 22771, 22772
 22773, 22774, 22775, 22776, 22777, 22778, 22779, 22780, 22781, 22782, 22783, 22784, 22785, 22786, 22787, 22788
 22789, 22790, 22791, 22792, 22793, 22794, 22795, 22796, 22797, 22798, 22799, 22800, 22801, 22802, 22803, 22804
 22805, 22806, 22807, 22808, 22809, 22810, 22811, 22812, 22813, 22814, 22815, 22816, 22817, 22818, 22819, 22820
** ... 168 like lines cut
*Nset, nset=_PickedSet12_#1, internal
    13,    14,    15,    16,    17,    18,    19,    20,    21,    22,    23,    24,    25,    26,    27,    28
    29,    30,    31,    32,    33,    34,    35,    36,  1229,  1230,  1231,  1232,  1233,  1234,  1235,  1236
  1237,  1238,  1239,  1240,  1241,  1242,  1243,  1244,  1245,  1246,  1247,  1248,  1249,  1250,  1251,  1252
  1253,  1254,  1255,  1256,  1257,  1258,  1259,  1260,  1261,  1262,  1263,  1264,  1265,  1266,  1267,  1268
  1269,  1270,  1271,  1272,  1273,  1274,  1275,  1276,  1277,  1278,  1279,  1280,  1281,  1282,  1283,  1284
  1285,  1286,  1287,  1288,  1289,  1290,  1291,  1292,  1293,  1294,  1295,  1296,  1297,  1298,  1299,  1300
  1301,  1302,  1303,  1304,  1305,  1306,  1307,  1308,  1309,  1310,  1311,  1312,  1313,  1314,  1315,  1316
  1317,  1318,  1319,  1320,  1321,  1322,  1323,  1324,  1325,  1326,  1327,  1328,  1329,  1330,  1331,  1332
  1333,  1334,  1335,  1336,  1337,  1338,  1339,  1340,  1341,  1342,  1343,  1344,  1345,  1346,  1347,  1348
  1349,  1350,  1351,  1352,  1353,  1354,  1355,  1356,  1357,  1358,  1359,  1360,  1361,  1362,  1363,  1364
  1365,  1366,  1367,  1368,  1369,  1370,  1371,  1372,  1373,  1374,  1375,  1376,  1377,  1378,  1379,  1380
  1381,  1382,  1383,  1384,  1385,  1386,  1387,  1388,  1389,  1390,  1391,  1392,  1393,  1394,  1395,  1396
  1397,  1398,  1399,  1400,  1401,  1402,  1403,  1404,  1405,  1406,  1407,  1408,  1409,  1410,  1411,  1412
  1413,  1414,  1415,  1416,  1417,  1418,  1419,  1420,  1421,  1422,  1423,  1424,  1425,  1426,  1427,  1428
  1429,  1430,  1431,  1432,  1433,  1434,  1435,  1436,  1437,  1438,  1439,  1440,  1441,  1442,  1443,  1444
  1445,  1446,  1447,  1448,  1449,  1450,  1451,  1452,  1453,  1454,  1455,  1456,  1457,  1458,  1459,  1460
  1461,  1462,  1463,  1464,  1465,  1466,  1467,  1468,  1469,  1470,  1471,  1472,  1473,  1474,  1475,  1476
  1477,  1478,  1479,  1480,  1481,  1482,  1483,  1484,  1485,  1486,  1487,  1488,  1489,  1490,  1491,  1492
  1493,  1494,  1495,  1496,  1497,  1498,  1499,  1500,  1501,  1502,  1503,  1504,  1505,  1506,  1507,  1508
  1509,  1510,  1511,  1512,  1513,  1514,  1515,  1516,  1517,  1518,  1519,  1520,  1521,  1522,  1523,  1524
** ... 169 like lines cut
*Elset, elset=_PickedSet12_#1, internal
 23251, 23252, 23253, 23254, 23255, 23256, 23257, 23258, 23259, 23260, 23261, 23262, 23263, 23264, 23265, 23266
 23267, 23268, 23269, 23270, 23271, 23272, 23273, 23274, 23275, 23276, 23277, 23278, 23279, 23280, 23281, 23282
 23283, 23284, 23285, 23286, 23287, 23288, 23289, 23290, 23291, 23292, 23293, 23294, 23295, 23296, 23297, 23298
 23299, 23300, 23301, 23302, 23303, 23304, 23305, 23306, 23307, 23308, 23309, 23310, 23311, 23312, 23313, 23314
 23315, 23316, 23317, 23318, 23319, 23320, 23321, 23322, 23323, 23324, 23325, 23326, 23327, 23328, 23329, 23330
 23331, 23332, 23333, 23334, 23335, 23336, 23337, 23338, 23339, 23340, 23341, 23342, 23343, 23344, 23345, 23346
 23347, 23348, 23349, 23350, 23351, 23352, 23353, 23354, 23355, 23356, 23357, 23358, 23359, 23360, 23361, 23362
 23363, 23364, 23365, 23366, 23367, 23368, 23369, 23370, 23371, 23372, 23373, 23374, 23375, 23376, 23377, 23378
 23379, 23380, 23381, 23382, 23383, 23384, 23385, 23386, 23387, 23388, 23389, 23390, 23391, 23392, 23393, 23394
 23395, 23396, 23397, 23398, 23399, 23400, 23401, 23402, 23403, 23404, 23405, 23406, 23407, 23408, 23409, 23410
 23411, 23412, 23413, 23414, 23415, 23416, 23417, 23418, 23419, 23420, 23421, 23422, 23423, 23424, 23425, 23426
 23427, 23428, 23429, 23430, 23431, 23432, 23433, 23434, 23435, 23436, 23437, 23438, 23439, 23440, 23441, 23442
 23443, 23444, 23445, 23446, 23447, 23448, 23449, 23450, 23451, 23452, 23453, 23454, 23455, 23456, 23457, 23458
 23459, 23460, 23461, 23462, 23463, 23464, 23465, 23466, 23467, 23468, 23469, 23470, 23471, 23472, 23473, 23474
 23475, 23476, 23477, 23478, 23479, 23480, 23481, 23482, 23483, 23484, 23485, 23486, 23487, 23488, 23489, 23490
 23491, 23492, 23493, 23494, 23495, 23496, 23497, 23498, 23499, 23500, 23501, 23502, 23503, 23504, 23505, 23506
 23507, 23508, 23509, 23510, 23511, 23512, 23513, 23514, 23515, 23516, 23517, 23518, 23519, 23520, 23521, 23522
 23523, 23524, 23525, 23526, 23527, 23528, 23529, 23530, 23531, 23532, 23533, 23534, 23535, 23536, 23537, 23538
 23539, 23540, 23541, 23542, 23543, 23544, 23545, 23546, 23547, 23548, 23549, 23550, 23551, 23552, 23553, 23554
 23555, 23556, 23557, 23558, 23559, 23560, 23561, 23562, 23563, 23564, 23565, 23566, 23567, 23568, 23569, 23570
** ... 130 like lines cut
*Elset, elset=Local-Thickness-Free
 23238, 23239, 23240, 23243, 23244, 23245, 23248, 23249, 23250, 24588, 24589, 24590, 24593, 24594, 24595, 24598
 24599, 24600, 25938, 25939, 25940, 25943, 25944, 25945, 25948, 25949, 25950, 27288, 27289, 27290, 27293, 27294
 27295, 27298, 27299, 27300
*Elset, elset=Local-Thickness-Fixed
 22503, 22504, 22505, 22508, 22509, 22510, 22513, 22514, 22515, 23853, 23854, 23855, 23858, 23859, 23860, 23863
 23864, 23865, 25203, 25204, 25205, 25208, 25209, 25210, 25213, 25214, 25215, 26553, 26554, 26555, 26558, 26559
 26560, 26563, 26564, 26565
** Section: t-0.01
*Shell Section, elset=_PickedSet10_#1, material=steel
0.01, 5
** Region: (t-0.0078:Picked)
*Elset, elset=_I2, internal
 22501, 22502, 22506, 22507, 22511, 22512, 22516, 22517, 22518, 22519, 22520, 22521, 22522, 22523, 22524, 22525
 22526, 22527, 22528, 22529, 22530, 22531, 22532, 22533, 22534, 22535, 22536, 22537, 22538, 22539, 22540, 22541
 22542, 22543, 22544, 22545, 22546, 22547, 22548, 22549, 22550, 22551, 22552, 22553, 22554, 22555, 22556, 22557
 22558, 22559, 22560, 22561, 22562, 22563, 22564, 22565, 22566, 22567, 22568, 22569, 22570, 22571, 22572, 22573
 22574, 22575, 22576, 22577, 22578, 22579, 22580, 22581, 22582, 22583, 22584, 22585, 22586, 22587, 22588, 22589
 22590, 22591, 22592, 22593, 22594, 22595, 22596, 22597, 22598, 22599, 22600, 22601, 22602, 22603, 22604, 22605
 22606, 22607, 22608, 22609, 22610, 22611, 22612, 22613, 22614, 22615, 22616, 22617, 22618, 22619, 22620, 22621
 22622, 22623, 22624, 22625, 22626, 22627, 22628, 22629, 22630, 22631, 22632, 22633, 22634, 22635, 22636, 22637
 22638, 22639, 22640, 22641, 22642, 22643, 22644, 22645, 22646, 22647, 22648, 22649, 22650, 22651, 22652, 22653
 22654, 22655, 22656, 22657, 22658, 22659, 22660, 22661, 22662, 22663, 22664, 22665, 22666, 22667, 22668, 22669
 22670, 22671, 22672, 22673, 22674, 22675, 22676, 22677, 22678, 22679, 22680, 22681, 22682, 22683, 22684, 22685
 22686, 22687, 22688, 22689, 22690, 22691, 22692, 22693, 22694, 22695, 22696, 22697, 22698, 22699, 22700, 22701
 22702, 22703, 22704, 22705, 22706, 22707, 22708, 22709, 22710, 22711, 22712, 22713, 22714, 22715, 22716, 22717
 22718, 22719, 22720, 22721, 22722, 22723, 22724, 22725, 22726, 22727, 22728, 22729, 22730, 22731, 22732, 22733
 22734, 22735, 22736, 22737, 22738, 22739, 22740, 22741, 22742, 22743, 22744, 22745, 22746, 22747, 22748, 22749
 22750, 22751, 22752, 22753, 22754, 22755, 22756, 22757, 22758, 22759, 22760, 22761, 22762, 22763, 22764, 22765
 22766, 22767, 22768, 22769, 22770, 22771, 22772, 22773, 22774, 22775, 22776, 22777, 22778, 22779, 22780, 22781
 22782, 22783, 22784, 22785, 22786, 22787, 22788, 22789, 22790, 22791, 22792, 22793, 22794, 22795, 22796, 22797
 22798, 22799, 22800, 22801, 22802, 22803, 22804, 22805, 22806, 22807, 22808, 22809, 22810, 22811, 22812, 22813
 22814, 22815, 22816, 22817, 22818, 22819, 22820, 22821, 22822, 22823, 22824, 22825, 22826, 22827, 22828, 22829
** ... 163 like lines cut
** Section: t-0.0078
*Shell Section, elset=_I2, material=steel
0.0078, 5
** Section: local-thickness
*Shell Section, elset=Local-Thickness-Fixed, material=steel
0.039, 5
** Section: local-thickness
*Shell Section, elset=Local-Thickness-Free, material=steel
0.039, 5
** Section: t-0.004
*Shell Section, elset=_PickedSet12_#1, material=steel
0.004, 5
*End Part
**  
**
** ASSEMBLY
**
*Assembly, name=Assembly
**  
*Instance, name=panel, part=panel
        -1.5,           0.,           0.
        -1.5,           0.,           0., -0.922649730810374, 0.577350269189626, 0.577350269189626,         120.
*End Instance
**  
*Nset, nset=Fixed-BC, instance=panel, generate
 1224,  2601,   459
*Nset, nset=Fixed-End-Follower, instance=panel
    3,    6,    7,   10,   12,  186,  187,  188,  189,  190,  191,  192,  193,  194,  195,  196
  197,  198,  199,  200,  201,  202,  203,  204,  205,  206,  207,  208,  209,  210,  211,  212
  213,  214,  571,  572,  573,  574,  575,  576,  577,  578,  579,  580,  581,  582,  583,  584
  585,  586,  587,  588,  589,  590,  591,  592,  593,  594,  595,  596,  597,  598,  599,  927
  928,  929,  930,  931,  932,  933,  934,  935,  936,  937,  938,  939,  940,  941,  942,  943
  944,  945,  946,  947,  948,  949,  950,  951,  952,  953,  954,  955, 1105, 1106, 1107, 1108
 1109, 1110, 1111, 1112, 1113, 1114, 1115, 1116, 1117, 1118, 1119, 1120, 1121, 1122, 1123, 1124
 1125, 1126, 1127, 1128, 1129, 1130, 1131, 1132, 1133, 1192, 1193, 1194, 1195, 1196, 1197, 1198
 1199, 1200, 1201, 1202, 1203, 1204, 1205, 1206, 1207, 1208, 1209, 1210, 1211, 1212, 1213, 1214
 1215, 1216, 1217, 1218, 1219, 1220
*Nset, nset=Fixed-End-Main, instance=panel
 2,
*Nset, nset=Free-End-Follower, instance=panel
    4,    5,    8,    9,   11,  364,  365,  366,  367,  368,  369,  370,  371,  372,  373,  374
  375,  376,  377,  378,  379,  380,  381,  382,  383,  384,  385,  386,  387,  388,  389,  390
  391,  392,  393,  394,  395,  396,  397,  398,  399,  400,  401,  402,  403,  404,  405,  406
  407,  408,  409,  410,  411,  412,  413,  414,  415,  416,  417,  418,  419,  420,  421,  749
  750,  751,  752,  753,  754,  755,  756,  757,  758,  759,  760,  761,  762,  763,  764,  765
  766,  767,  768,  769,  770,  771,  772,  773,  774,  775,  776,  777, 1134, 1135, 1136, 1137
 1138, 1139, 1140, 1141, 1142, 1143, 1144, 1145, 1146, 1147, 1148, 1149, 1150, 1151, 1152, 1153
 1154, 1155, 1156, 1157, 1158, 1159, 1160, 1161, 1162, 1163, 1164, 1165, 1166, 1167, 1168, 1169
 1170, 1171, 1172, 1173, 1174, 1175, 1176, 1177, 1178, 1179, 1180, 1181, 1182, 1183, 1184, 1185
 1186, 1187, 1188, 1189, 1190, 1191
*Nset, nset=Free-End-Main, instance=panel
 1,
*Nset, nset=Load-Follower, instance=panel, generate
 1684,  2602,   459
*Nset, nset=Load-Main, instance=panel
 1225,
*Nset, nset=Web0-Follower, instance=panel
    8,   13,   14, 1221, 1222, 1223, 1224, 1225, 1226, 1227, 1228
*Nset, nset=Web0-Main, instance=panel
 7,
*Nset, nset=Web1-Follower, instance=panel
   12,   31,   32, 2598, 2599, 2600, 2601, 2602, 2603, 2604, 2605
*Nset, nset=Web1-Main, instance=panel
 11,
*Nset, nset=Web2-Follower, instance=panel
    6,   19,   20, 1680, 1681, 1682, 1683, 1684, 1685, 1686, 1687
*Nset, nset=Web2-Main, instance=panel
 5,
*Nset, nset=Web3-Follower, instance=panel
    2,   25,   26, 2139, 2140, 2141, 2142, 2143, 2144, 2145, 2146
*Nset, nset=Web3-Main, instance=panel
 1,
*Nset, nset=load_set, instance=panel
 1225,
*Nset, nset=middle-bc, instance=panel
 18180,
*Nset, nset=plate-edge, instance=panel
    1,    2,    3,    4,    5,    6,    7,    8,    9,   10,   11,   12,  186,  187,  188,  189
  190,  191,  192,  193,  194,  195,  196,  197,  198,  199,  200,  201,  202,  203,  204,  205
  206,  207,  208,  209,  210,  211,  212,  213,  214,  215,  216,  217,  218,  219,  220,  221
  222,  223,  224,  225,  226,  227,  228,  229,  230,  231,  232,  233,  234,  235,  236,  237
  238,  239,  240,  241,  242,  243,  244,  245,  246,  247,  248,  249,  250,  251,  252,  253
  254,  255,  256,  257,  258,  259,  260,  261,  262,  263,  264,  265,  266,  267,  268,  269
  270,  271,  272,  273,  274,  275,  276,  277,  278,  279,  280,  281,  282,  283,  284,  285
  286,  287,  288,  289,  290,  291,  292,  293,  294,  295,  296,  297,  298,  299,  300,  301
  302,  303,  304,  305,  306,  307,  308,  309,  310,  311,  312,  313,  314,  315,  316,  317
  318,  319,  320,  321,  322,  323,  324,  325,  326,  327,  328,  329,  330,  331,  332,  333
  334,  335,  336,  337,  338,  339,  340,  341,  342,  343,  344,  345,  346,  347,  348,  349
  350,  351,  352,  353,  354,  355,  356,  357,  358,  359,  360,  361,  362,  363,  364,  365
  366,  367,  368,  369,  370,  371,  372,  373,  374,  375,  376,  377,  378,  379,  380,  381
  382,  383,  384,  385,  386,  387,  388,  389,  390,  391,  392,  393,  394,  395,  396,  397
  398,  399,  400,  401,  402,  403,  404,  405,  406,  407,  408,  409,  410,  411,  412,  413
  414,  415,  416,  417,  418,  419,  420,  421,  571,  572,  573,  574,  575,  576,  577,  578
  579,  580,  581,  582,  583,  584,  585,  586,  587,  588,  589,  590,  591,  592,  593,  594
  595,  596,  597,  598,  599,  749,  750,  751,  752,  753,  754,  755,  756,  757,  758,  759
  760,  761,  762,  763,  764,  765,  766,  767,  768,  769,  770,  771,  772,  773,  774,  775
  776,  777,  778,  779,  780,  781,  782,  783,  784,  785,  786,  787,  788,  789,  790,  791
** ... 18 like lines cut
** Constraint: Fixed-End-1
*Equation
2
Fixed-End-Follower, 1, 1.
Fixed-End-Main, 1, -1.
** Constraint: Free-End-1
*Equation
2
Free-End-Follower, 1, 1.
Free-End-Main, 1, -1.
** Constraint: Load-1
*Equation
2
Load-Follower, 1, 1.
Load-Main, 1, -1.
** Constraint: Web0-2
*Equation
2
Web0-Follower, 2, 1.
Web0-Main, 2, -1.
** Constraint: Web1-2
*Equation
2
Web1-Follower, 2, 1.
Web1-Main, 2, -1.
** Constraint: Web2-2
*Equation
2
Web2-Follower, 2, 1.
Web2-Main, 2, -1.
** Constraint: Web3-2
*Equation
2
Web3-Follower, 2, 1.
Web3-Main, 2, -1.
*End Assembly
** 
** MATERIALS
** 
*Material, name=steel
*Density
7850., 296.15
*Elastic
 2e+11, 0.3
*Plastic
    3.55e+08,    0.
    3.55e+08, 0.006
 3.56713e+08, 0.016
 3.60895e+08, 0.026
 3.68869e+08, 0.046
  3.7638e+08, 0.066
 3.83488e+08, 0.086
** 
** BOUNDARY CONDITIONS
** 
** Name: Edge-BC Type: Displacement/Rotation
*Boundary
plate-edge, 3, 3
** Name: Fixed-BC Type: Displacement/Rotation
*Boundary
Fixed-BC, 1, 1
** Name: Middle-BC Type: Displacement/Rotation
*Boundary
middle-bc, 2, 2
** ----------------------------------------------------------------
** 
** STEP: Buckle-Step
** 
*Step, name=Buckle-Step, nlgeom=NO, perturbation
*Buckle
5, , 10, 500
** 
** BOUNDARY CONDITIONS
** 
** Name: Edge-BC Type: Displacement/Rotation
*Boundary, op=NEW, load case=1
plate-edge, 3, 3
*Boundary, op=NEW, load case=2
plate-edge, 3, 3
** Name: Fixed-BC Type: Displacement/Rotation
*Boundary, op=NEW, load case=1
Fixed-BC, 1, 1
*Boundary, op=NEW, load case=2
Fixed-BC, 1, 1
** Name: Middle-BC Type: Displacement/Rotation
*Boundary, op=NEW, load case=1
middle-bc, 2, 2
*Boundary, op=NEW, load case=2
middle-bc, 2, 2
** 
** LOADS
** 
** Name: Load   Type: Concentrated force
*Cload
load_set, 1, 1e+06
load_set, 2, 0.
load_set, 3, 0.
** 
** OUTPUT REQUESTS
** 
*Restart, write, frequency=0
** 
** FIELD OUTPUT: F-Output-1
** 
*Output, field, variable=PRESELECT
*End Step
